<?xml version="1.0" encoding="UTF-8"?>

<!-- generated on 10/11/14 16:06:25 by SUMO netconvert Version 0.21.0
<?xml version="1.0" encoding="UTF-8"?>

<configuration xmlns:xsi="http://www.w3.org/2001/XMLSchema-instance" xsi:noNamespaceSchemaLocation="http://sumo-sim.org/xsd/netconvertConfiguration.xsd">

    <input>
        <osm-files value="C:\Users\Mathias\git\jts\src\main\resources\map2.osm"/>
    </input>

    <output>
        <output-file value="C:\Users\Mathias\git\jts\src\main\resources\map2.net.xml"/>
    </output>

    <projection>
        <proj.utm value="true"/>
    </projection>

    <processing>
        <no-internal-links value="true"/>
    </processing>

</configuration>
-->

<net version="0.13" xmlns:xsi="http://www.w3.org/2001/XMLSchema-instance" xsi:noNamespaceSchemaLocation="http://sumo-sim.org/xsd/net_file.xsd">

    <location netOffset="-362334.77,-5201189.36" convBoundary="0.00,0.00,1065.43,933.81" origBoundary="7.190806,46.950060,7.204740,46.958433" projParameter="+proj=utm +zone=32 +ellps=WGS84 +datum=WGS84 +units=m +no_defs"/>

    <edge id="-53268712#0" from="674500567" to="674019539" priority="5" type="highway.unclassified" shape="467.95,451.48 400.47,436.96 222.75,365.47 184.70,360.31 114.92,335.79 82.93,313.14 40.59,297.38 0.00,289.02">
        <lane id="-53268712#0_0" index="0" speed="22.22" length="498.76" shape="462.40,451.97 400.12,438.58 222.33,367.07 184.31,361.92 114.15,337.27 82.15,314.62 40.01,298.92 -0.33,290.64"/>
    </edge>
    <edge id="-53268712#1" from="674493152" to="674500567" priority="5" type="highway.unclassified">
        <lane id="-53268712#1_0" index="0" speed="22.22" length="18.17" shape="480.13,454.47 475.02,453.91"/>
    </edge>
    <edge id="-53268712#2" from="677367052" to="674493152" priority="5" type="highway.unclassified" shape="716.53,396.08 699.26,393.57 687.77,393.84 665.49,401.34 486.01,453.45">
        <lane id="-53268712#2_0" index="0" speed="22.22" length="239.35" shape="711.23,396.98 699.03,395.20 688.06,395.48 666.01,402.90 489.45,454.17"/>
    </edge>
    <edge id="-53268712#3" from="674493151" to="677367052" priority="5" type="highway.unclassified" shape="1065.43,670.57 1028.52,641.42 1015.27,630.14 905.01,503.82 877.12,480.60 860.43,468.71 834.12,454.32 716.53,396.08">
        <lane id="-53268712#3_0" index="0" speed="22.22" length="450.10" shape="1064.41,671.87 1027.50,642.72 1014.20,631.40 903.77,504.91 876.06,481.87 859.47,470.05 833.33,455.76 719.03,399.15"/>
    </edge>
    <edge id="-53330868" from="677367052" to="674500575" priority="5" type="highway.unclassified" shape="716.53,396.08 719.41,318.97 816.67,260.43 873.65,227.65 927.11,196.90 995.62,130.88 1010.40,118.95 1054.97,34.75 854.92,19.57 732.29,10.79 662.22,56.71 557.62,100.64">
        <lane id="-53330868_0" index="0" speed="22.22" length="1048.29" shape="715.07,390.91 717.79,318.02 815.82,259.01 872.83,226.22 926.11,195.57 994.47,129.69 1009.10,117.87 1052.33,36.21 854.79,21.21 732.73,12.47 663.00,58.17 566.02,98.90"/>
    </edge>
    <edge id="-53631335#0" from="847119858" to="674493152" priority="5" type="highway.unclassified">
        <lane id="-53631335#0_0" index="0" speed="22.22" length="28.32" shape="480.01,464.34 482.39,458.20"/>
    </edge>
    <edge id="-53631335#1" from="846230899" to="847119858" priority="5" type="highway.unclassified">
        <lane id="-53631335#1_0" index="0" speed="22.22" length="19.15" shape="476.50,482.71 476.66,469.30"/>
    </edge>
    <edge id="-53631335#2" from="984755579" to="846230899" priority="5" type="highway.unclassified" shape="317.57,579.75 318.94,575.17 325.62,568.20 334.68,563.97 374.06,567.61 390.52,565.95 407.66,559.86 424.55,546.90 471.28,498.24 478.12,485.62">
        <lane id="-53631335#2_0" index="0" speed="22.22" length="201.82" shape="317.02,575.84 317.47,574.32 324.64,566.84 334.39,562.28 374.06,565.95 390.16,564.33 406.86,558.40 423.55,545.59 469.94,497.26 473.90,489.94"/>
    </edge>
    <edge id="-53631335#3" from="674027253" to="984755579" priority="5" type="highway.unclassified" shape="366.47,902.84 370.69,850.82 376.54,781.66 382.17,725.80 383.80,699.09 378.55,672.46 369.35,654.76 355.44,633.71 321.03,594.96 317.39,585.16 317.57,579.75">
        <lane id="-53631335#3_0" index="0" speed="22.22" length="344.51" shape="364.83,902.71 369.04,850.69 374.90,781.52 380.53,725.63 382.14,699.20 376.98,673.01 367.88,655.52 354.06,634.62 319.59,595.82 315.73,585.43 315.74,585.05"/>
    </edge>
    <edge id="-71028858" from="705176727" to="846230899" priority="4" type="highway.residential" shape="466.97,933.81 466.72,922.91 470.11,862.16 470.75,830.79 467.69,697.93 489.93,623.79 490.99,610.81 512.67,571.79 517.29,561.89 520.77,550.02 518.41,536.96 513.03,526.03 494.94,502.13 478.12,485.62">
        <lane id="-71028858_0" index="0" speed="13.89" length="473.38" shape="465.32,933.85 465.07,922.95 468.46,862.07 469.10,830.76 466.04,697.70 488.30,623.48 489.38,610.32 511.22,570.99 515.79,561.19 519.07,549.93 516.83,537.48 511.62,526.90 493.62,503.13 481.11,490.87"/>
    </edge>
    <edge id="-71143715#0" from="674500567" to="847119858" priority="5" type="highway.unclassified">
        <lane id="-71143715#0_0" index="0" speed="22.22" length="31.15" shape="472.55,457.38 475.89,464.48"/>
    </edge>
    <edge id="-71143715#1" from="674500575" to="674500567" priority="5" type="highway.unclassified" shape="557.62,100.64 471.38,382.21 467.95,451.48">
        <lane id="-71143715#1_0" index="0" speed="22.22" length="363.83" shape="558.31,104.01 473.01,382.50 469.86,446.24"/>
    </edge>
    <edge id="-71143715#2" from="674500569" to="674500575" priority="5" type="highway.unclassified">
        <lane id="-71143715#2_0" index="0" speed="22.22" length="105.17" shape="589.72,0.48 561.64,93.07"/>
    </edge>
    <edge id="-84810593" from="984755600" to="984755579" priority="4" type="highway.residential" shape="148.14,807.08 255.48,635.79 306.85,581.25 317.57,579.75">
        <lane id="-84810593_0" index="0" speed="13.89" length="287.89" shape="146.74,806.21 254.16,634.78 306.04,579.70 312.03,578.86"/>
    </edge>
    <edge id="53268712#0" from="674019539" to="674500567" priority="5" type="highway.unclassified" shape="0.00,289.02 40.59,297.38 82.93,313.14 114.92,335.79 184.70,360.31 222.75,365.47 400.47,436.96 467.95,451.48">
        <lane id="53268712#0_0" index="0" speed="22.22" length="498.76" shape="0.33,287.40 40.92,295.76 83.71,311.67 115.68,334.31 185.09,358.69 223.18,363.86 401.08,435.43 463.09,448.75"/>
    </edge>
    <edge id="53268712#1" from="674500567" to="674493152" priority="5" type="highway.unclassified">
        <lane id="53268712#1_0" index="0" speed="22.22" length="18.17" shape="475.38,450.63 480.49,451.19"/>
    </edge>
    <edge id="53268712#2" from="674493152" to="677367052" priority="5" type="highway.unclassified" shape="486.01,453.45 665.49,401.34 687.77,393.84 699.26,393.57 716.53,396.08">
        <lane id="53268712#2_0" index="0" speed="22.22" length="239.35" shape="488.53,451.00 665.03,399.76 687.48,392.19 699.22,391.92 711.71,393.72"/>
    </edge>
    <edge id="53268712#3" from="677367052" to="674493151" priority="5" type="highway.unclassified" shape="716.53,396.08 834.12,454.32 860.43,468.71 877.12,480.60 905.01,503.82 1015.27,630.14 1028.52,641.42 1065.43,670.57">
        <lane id="53268712#3_0" index="0" speed="22.22" length="450.10" shape="720.49,396.20 834.85,452.84 861.22,467.26 878.07,479.26 906.06,502.55 1016.51,629.06 1029.59,640.17 1066.45,669.28"/>
    </edge>
    <edge id="53330868" from="674500575" to="677367052" priority="5" type="highway.unclassified" shape="557.62,100.64 662.22,56.71 732.29,10.79 854.92,19.57 1054.97,34.75 1010.40,118.95 995.62,130.88 927.11,196.90 873.65,227.65 816.67,260.43 719.41,318.97 716.53,396.08">
        <lane id="53330868_0" index="0" speed="22.22" length="1048.29" shape="564.74,95.86 661.44,55.25 731.85,9.10 855.03,17.92 1057.61,33.30 1011.70,120.02 996.66,132.16 928.10,198.23 874.47,229.08 817.50,261.86 721.02,319.93 718.37,391.03"/>
    </edge>
    <edge id="53631335#0" from="674493152" to="847119858" priority="5" type="highway.unclassified">
        <lane id="53631335#0_0" index="0" speed="22.22" length="28.32" shape="485.47,459.39 483.09,465.53"/>
    </edge>
    <edge id="53631335#1" from="847119858" to="846230899" priority="5" type="highway.unclassified">
        <lane id="53631335#1_0" index="0" speed="22.22" length="19.15" shape="479.96,469.34 479.80,482.75"/>
    </edge>
    <edge id="53631335#2" from="846230899" to="984755579" priority="5" type="highway.unclassified" shape="478.12,485.62 471.28,498.24 424.55,546.90 407.66,559.86 390.52,565.95 374.06,567.61 334.68,563.97 325.62,568.20 318.94,575.17 317.57,579.75">
        <lane id="53631335#2_0" index="0" speed="22.22" length="201.82" shape="476.80,491.52 472.63,499.22 425.74,548.04 408.45,561.33 390.89,567.57 374.07,569.27 334.98,565.65 326.59,569.57 320.41,576.03 320.18,576.79"/>
    </edge>
    <edge id="53631335#3" from="984755579" to="674027253" priority="5" type="highway.unclassified" shape="317.57,579.75 317.39,585.16 321.03,594.96 355.44,633.71 369.35,654.76 378.55,672.46 383.80,699.09 382.17,725.80 376.54,781.66 370.69,850.82 366.47,902.84">
        <lane id="53631335#3_0" index="0" speed="22.22" length="344.51" shape="319.14,585.14 322.47,594.09 356.67,632.62 370.73,653.85 380.12,671.91 385.46,698.98 383.82,725.90 378.18,781.83 372.33,850.96 368.12,902.97"/>
    </edge>
    <edge id="71028858" from="846230899" to="705176727" priority="4" type="highway.residential" shape="478.12,485.62 494.94,502.13 513.03,526.03 518.41,536.96 520.77,550.02 517.29,561.89 512.67,571.79 490.99,610.81 489.93,623.79 467.69,697.93 470.75,830.79 470.11,862.16 466.72,922.91 466.97,933.81">
        <lane id="71028858_0" index="0" speed="13.89" length="473.38" shape="483.42,488.52 496.10,500.96 514.44,525.16 519.99,536.44 522.46,550.12 518.87,562.35 514.16,572.49 492.61,611.30 491.56,624.10 469.35,698.15 472.40,830.76 471.76,862.20 468.36,923.00 468.62,933.77"/>
    </edge>
    <edge id="71143715#0" from="847119858" to="674500567" priority="5" type="highway.unclassified">
        <lane id="71143715#0_0" index="0" speed="22.22" length="31.15" shape="472.90,465.88 469.56,458.78"/>
    </edge>
    <edge id="71143715#1" from="674500567" to="674500575" priority="5" type="highway.unclassified" shape="467.95,451.48 471.38,382.21 557.62,100.64">
        <lane id="71143715#1_0" index="0" speed="22.22" length="363.83" shape="466.57,446.08 469.74,381.92 555.16,103.05"/>
    </edge>
    <edge id="71143715#2" from="674500575" to="674500569" priority="5" type="highway.unclassified">
        <lane id="71143715#2_0" index="0" speed="22.22" length="105.17" shape="558.48,92.11 586.56,-0.48"/>
    </edge>
    <edge id="84810593" from="984755579" to="984755600" priority="4" type="highway.residential" shape="317.57,579.75 306.85,581.25 255.48,635.79 148.14,807.08">
        <lane id="84810593_0" index="0" speed="13.89" length="287.89" shape="312.48,582.13 307.65,582.81 256.79,636.81 149.54,807.96"/>
    </edge>

    <junction id="674019539" type="priority" x="0.00" y="289.02" incLanes="-53268712#0_0" intLanes="" shape="0.01,288.97 0.66,285.84 -0.65,292.20 -0.01,289.07">
        <request index="0" response="0" foes="0"/>
    </junction>
    <junction id="674027253" type="priority" x="366.47" y="902.84" incLanes="53631335#3_0" intLanes="" shape="366.42,902.83 363.23,902.58 369.71,903.10 366.52,902.84">
        <request index="0" response="0" foes="0"/>
    </junction>
    <junction id="674493151" type="priority" x="1065.43" y="670.57" incLanes="53268712#3_0" intLanes="" shape="1065.40,670.61 1063.42,673.12 1067.44,668.02 1065.46,670.53">
        <request index="0" response="0" foes="0"/>
    </junction>
    <junction id="674493152" type="priority" x="486.01" y="453.45" incLanes="-53268712#2_0 53268712#1_0 -53631335#0_0" intLanes="" shape="489.90,455.71 488.09,449.47 480.66,449.60 479.96,456.06 480.90,457.62 486.96,459.97">
        <request index="0" response="000000000" foes="100010000"/>
        <request index="1" response="000000000" foes="011110000"/>
        <request index="2" response="010001000" foes="010001000"/>
        <request index="3" response="000000000" foes="010000100"/>
        <request index="4" response="000000011" foes="110000011"/>
        <request index="5" response="001000010" foes="001000010"/>
        <request index="6" response="000000010" foes="000100010"/>
        <request index="7" response="000011010" foes="000011110"/>
        <request index="8" response="000010001" foes="000010001"/>
    </junction>
    <junction id="674500567" type="priority" x="467.95" y="451.48" incLanes="71143715#0_0 -53268712#1_0 -71143715#1_0 53268712#0_0" intLanes="" shape="468.12,459.46 474.00,456.70 474.85,455.50 475.56,449.04 471.46,446.32 464.97,446.00 463.43,447.18 462.06,453.53">
        <request index="0" response="0000000000100000" foes="1000010000100000"/>
        <request index="1" response="0111000001100000" foes="0111110001100000"/>
        <request index="2" response="0110001101100000" foes="0110001111100000"/>
        <request index="3" response="0100001000010000" foes="0100001000010000"/>
        <request index="4" response="0000000000000000" foes="0100001000001000"/>
        <request index="5" response="0000000000000000" foes="1100011000000111"/>
        <request index="6" response="0011000000000000" foes="0011111000000110"/>
        <request index="7" response="0010000100000100" foes="0010000100000100"/>
        <request index="8" response="0010000000000000" foes="0010000010000100"/>
        <request index="9" response="0110000001110000" foes="0110000001111100"/>
        <request index="10" response="0110000001100011" foes="1110000001100011"/>
        <request index="11" response="0001000001000010" foes="0001000001000010"/>
        <request index="12" response="0000000000000000" foes="0000100001000010"/>
        <request index="13" response="0000000000000000" foes="0000011111000110"/>
        <request index="14" response="0000000000110000" foes="0000011000111110"/>
        <request index="15" response="0000010000100001" foes="0000010000100001"/>
    </junction>
    <junction id="674500569" type="priority" x="588.14" y="0.00" incLanes="71143715#2_0" intLanes="" shape="588.19,0.01 591.25,0.94 585.03,-0.94 588.10,-0.01">
        <request index="0" response="0" foes="0"/>
    </junction>
    <junction id="674500575" type="priority" x="557.62" y="100.64" incLanes="-53330868_0 -71143715#2_0 71143715#1_0" intLanes="" shape="566.64,100.38 564.12,94.39 563.17,93.53 556.95,91.65 553.63,102.58 559.84,104.48">
        <request index="0" response="000010000" foes="100010000"/>
        <request index="1" response="011010000" foes="011110000"/>
        <request index="2" response="010001000" foes="010001000"/>
        <request index="3" response="000000000" foes="010000100"/>
        <request index="4" response="000000000" foes="110000011"/>
        <request index="5" response="001000010" foes="001000010"/>
        <request index="6" response="000000000" foes="000100010"/>
        <request index="7" response="000011000" foes="000011110"/>
        <request index="8" response="000010001" foes="000010001"/>
    </junction>
    <junction id="677367052" type="priority" x="716.53" y="396.08" incLanes="-53268712#3_0 53330868_0 53268712#2_0" intLanes="" shape="718.32,400.59 721.20,394.76 719.97,391.09 713.48,390.85 711.93,392.13 711.00,398.56">
        <request index="0" response="000000000" foes="100010000"/>
        <request index="1" response="000000000" foes="011110000"/>
        <request index="2" response="010001000" foes="010001000"/>
        <request index="3" response="000000000" foes="010000100"/>
        <request index="4" response="000000011" foes="110000011"/>
        <request index="5" response="001000010" foes="001000010"/>
        <request index="6" response="000000010" foes="000100010"/>
        <request index="7" response="000011010" foes="000011110"/>
        <request index="8" response="000010001" foes="000010001"/>
    </junction>
    <junction id="705176727" type="priority" x="466.97" y="933.81" incLanes="71028858_0" intLanes="" shape="466.92,933.81 463.72,933.89 470.22,933.74 467.02,933.81">
        <request index="0" response="0" foes="0"/>
    </junction>
    <junction id="846230899" type="priority" x="478.12" y="485.62" incLanes="-71028858_0 53631335#1_0 -53631335#2_0" intLanes="" shape="479.99,492.01 484.54,487.37 481.40,482.77 474.90,482.70 472.49,489.18 478.21,492.28">
        <request index="0" response="000010000" foes="100010000"/>
        <request index="1" response="011010000" foes="011110000"/>
        <request index="2" response="010001000" foes="010001000"/>
        <request index="3" response="000000000" foes="010000100"/>
        <request index="4" response="000000000" foes="110000011"/>
        <request index="5" response="001000010" foes="001000010"/>
        <request index="6" response="000000000" foes="000100010"/>
        <request index="7" response="000011000" foes="000011110"/>
        <request index="8" response="000010001" foes="000010001"/>
    </junction>
    <junction id="847119858" type="priority" x="478.26" y="473.40" incLanes="53631335#0_0 -71143715#0_0 -53631335#1_0" intLanes="" shape="484.58,466.11 478.52,463.76 477.34,463.80 471.46,466.56 475.06,469.28 481.56,469.36">
        <request index="0" response="000000000" foes="100010000"/>
        <request index="1" response="011000000" foes="011110000"/>
        <request index="2" response="010001000" foes="010001000"/>
        <request index="3" response="010000000" foes="010000100"/>
        <request index="4" response="010000011" foes="110000011"/>
        <request index="5" response="001000010" foes="001000010"/>
        <request index="6" response="000000000" foes="000100010"/>
        <request index="7" response="000000000" foes="000011110"/>
        <request index="8" response="000010001" foes="000010001"/>
    </junction>
    <junction id="984755579" type="priority" x="317.57" y="579.75" incLanes="53631335#2_0 -84810593_0 -53631335#3_0" intLanes="" shape="321.71,577.25 315.48,575.38 311.80,577.28 312.71,583.71 314.14,585.00 320.87,585.18">
        <request index="0" response="000000000" foes="100010000"/>
        <request index="1" response="011000000" foes="011110000"/>
        <request index="2" response="010001000" foes="010001000"/>
        <request index="3" response="010000000" foes="010000100"/>
        <request index="4" response="010000011" foes="110000011"/>
        <request index="5" response="001000010" foes="001000010"/>
        <request index="6" response="000000000" foes="000100010"/>
        <request index="7" response="000000000" foes="000011110"/>
        <request index="8" response="000010001" foes="000010001"/>
    </junction>
    <junction id="984755600" type="priority" x="148.14" y="807.08" incLanes="84810593_0" intLanes="" shape="148.10,807.06 145.38,805.36 150.89,808.81 148.18,807.11">
        <request index="0" response="0" foes="0"/>
    </junction>

    <connection from="-53268712#0" to="53268712#0" fromLane="0" toLane="0" dir="t" state="M"/>
    <connection from="-53268712#1" to="-71143715#0" fromLane="0" toLane="0" dir="r" state="M"/>
    <connection from="-53268712#1" to="-53268712#0" fromLane="0" toLane="0" dir="s" state="M"/>
    <connection from="-53268712#1" to="71143715#1" fromLane="0" toLane="0" dir="l" state="m"/>
    <connection from="-53268712#1" to="53268712#1" fromLane="0" toLane="0" dir="t" state="m"/>
    <connection from="-53268712#2" to="53631335#0" fromLane="0" toLane="0" dir="r" state="M"/>
    <connection from="-53268712#2" to="-53268712#1" fromLane="0" toLane="0" dir="s" state="M"/>
    <connection from="-53268712#2" to="53268712#2" fromLane="0" toLane="0" dir="t" state="m"/>
    <connection from="-53268712#3" to="-53268712#2" fromLane="0" toLane="0" dir="s" state="M"/>
    <connection from="-53268712#3" to="-53330868" fromLane="0" toLane="0" dir="l" state="M"/>
    <connection from="-53268712#3" to="53268712#3" fromLane="0" toLane="0" dir="t" state="m"/>
    <connection from="-53330868" to="-71143715#1" fromLane="0" toLane="0" dir="r" state="m"/>
    <connection from="-53330868" to="71143715#2" fromLane="0" toLane="0" dir="l" state="m"/>
    <connection from="-53330868" to="53330868" fromLane="0" toLane="0" dir="t" state="m"/>
    <connection from="-53631335#0" to="-53268712#1" fromLane="0" toLane="0" dir="r" state="m"/>
    <connection from="-53631335#0" to="53268712#2" fromLane="0" toLane="0" dir="l" state="m"/>
    <connection from="-53631335#0" to="53631335#0" fromLane="0" toLane="0" dir="t" state="m"/>
    <connection from="-53631335#1" to="71143715#0" fromLane="0" toLane="0" dir="s" state="M"/>
    <connection from="-53631335#1" to="-53631335#0" fromLane="0" toLane="0" dir="s" state="M"/>
    <connection from="-53631335#1" to="53631335#1" fromLane="0" toLane="0" dir="t" state="m"/>
    <connection from="-53631335#2" to="-53631335#1" fromLane="0" toLane="0" dir="s" state="M"/>
    <connection from="-53631335#2" to="71028858" fromLane="0" toLane="0" dir="l" state="m"/>
    <connection from="-53631335#2" to="53631335#2" fromLane="0" toLane="0" dir="t" state="m"/>
    <connection from="-53631335#3" to="84810593" fromLane="0" toLane="0" dir="r" state="M"/>
    <connection from="-53631335#3" to="-53631335#2" fromLane="0" toLane="0" dir="s" state="M"/>
    <connection from="-53631335#3" to="53631335#3" fromLane="0" toLane="0" dir="t" state="m"/>
    <connection from="-71028858" to="53631335#2" fromLane="0" toLane="0" dir="r" state="m"/>
    <connection from="-71028858" to="-53631335#1" fromLane="0" toLane="0" dir="l" state="m"/>
    <connection from="-71028858" to="71028858" fromLane="0" toLane="0" dir="t" state="m"/>
    <connection from="-71143715#0" to="-53631335#0" fromLane="0" toLane="0" dir="r" state="m"/>
    <connection from="-71143715#0" to="53631335#1" fromLane="0" toLane="0" dir="s" state="m"/>
    <connection from="-71143715#0" to="71143715#0" fromLane="0" toLane="0" dir="t" state="m"/>
    <connection from="-71143715#1" to="53268712#1" fromLane="0" toLane="0" dir="r" state="m"/>
    <connection from="-71143715#1" to="-71143715#0" fromLane="0" toLane="0" dir="s" state="m"/>
    <connection from="-71143715#1" to="-53268712#0" fromLane="0" toLane="0" dir="l" state="m"/>
    <connection from="-71143715#1" to="71143715#1" fromLane="0" toLane="0" dir="t" state="m"/>
    <connection from="-71143715#2" to="53330868" fromLane="0" toLane="0" dir="r" state="M"/>
    <connection from="-71143715#2" to="-71143715#1" fromLane="0" toLane="0" dir="s" state="M"/>
    <connection from="-71143715#2" to="71143715#2" fromLane="0" toLane="0" dir="t" state="m"/>
    <connection from="-84810593" to="-53631335#2" fromLane="0" toLane="0" dir="r" state="m"/>
    <connection from="-84810593" to="53631335#3" fromLane="0" toLane="0" dir="l" state="m"/>
    <connection from="-84810593" to="84810593" fromLane="0" toLane="0" dir="t" state="m"/>
    <connection from="53268712#0" to="71143715#1" fromLane="0" toLane="0" dir="r" state="M"/>
    <connection from="53268712#0" to="53268712#1" fromLane="0" toLane="0" dir="s" state="M"/>
    <connection from="53268712#0" to="-71143715#0" fromLane="0" toLane="0" dir="l" state="m"/>
    <connection from="53268712#0" to="-53268712#0" fromLane="0" toLane="0" dir="t" state="m"/>
    <connection from="53268712#1" to="53268712#2" fromLane="0" toLane="0" dir="s" state="M"/>
    <connection from="53268712#1" to="53631335#0" fromLane="0" toLane="0" dir="l" state="m"/>
    <connection from="53268712#1" to="-53268712#1" fromLane="0" toLane="0" dir="t" state="m"/>
    <connection from="53268712#2" to="-53330868" fromLane="0" toLane="0" dir="r" state="m"/>
    <connection from="53268712#2" to="53268712#3" fromLane="0" toLane="0" dir="s" state="m"/>
    <connection from="53268712#2" to="-53268712#2" fromLane="0" toLane="0" dir="t" state="m"/>
    <connection from="53268712#3" to="-53268712#3" fromLane="0" toLane="0" dir="t" state="M"/>
    <connection from="53330868" to="53268712#3" fromLane="0" toLane="0" dir="r" state="M"/>
    <connection from="53330868" to="-53268712#2" fromLane="0" toLane="0" dir="l" state="m"/>
    <connection from="53330868" to="-53330868" fromLane="0" toLane="0" dir="t" state="m"/>
    <connection from="53631335#0" to="53631335#1" fromLane="0" toLane="0" dir="s" state="M"/>
    <connection from="53631335#0" to="71143715#0" fromLane="0" toLane="0" dir="l" state="m"/>
    <connection from="53631335#0" to="-53631335#0" fromLane="0" toLane="0" dir="t" state="m"/>
    <connection from="53631335#1" to="71028858" fromLane="0" toLane="0" dir="r" state="M"/>
    <connection from="53631335#1" to="53631335#2" fromLane="0" toLane="0" dir="s" state="M"/>
    <connection from="53631335#1" to="-53631335#1" fromLane="0" toLane="0" dir="t" state="m"/>
    <connection from="53631335#2" to="53631335#3" fromLane="0" toLane="0" dir="s" state="M"/>
    <connection from="53631335#2" to="84810593" fromLane="0" toLane="0" dir="l" state="m"/>
    <connection from="53631335#2" to="-53631335#2" fromLane="0" toLane="0" dir="t" state="m"/>
    <connection from="53631335#3" to="-53631335#3" fromLane="0" toLane="0" dir="t" state="M"/>
    <connection from="71028858" to="-71028858" fromLane="0" toLane="0" dir="t" state="M"/>
    <connection from="71143715#0" to="-53268712#0" fromLane="0" toLane="0" dir="r" state="m"/>
    <connection from="71143715#0" to="71143715#1" fromLane="0" toLane="0" dir="s" state="m"/>
    <connection from="71143715#0" to="53268712#1" fromLane="0" toLane="0" dir="l" state="m"/>
    <connection from="71143715#0" to="-71143715#0" fromLane="0" toLane="0" dir="t" state="m"/>
    <connection from="71143715#1" to="71143715#2" fromLane="0" toLane="0" dir="s" state="M"/>
    <connection from="71143715#1" to="53330868" fromLane="0" toLane="0" dir="l" state="m"/>
    <connection from="71143715#1" to="-71143715#1" fromLane="0" toLane="0" dir="t" state="m"/>
    <connection from="71143715#2" to="-71143715#2" fromLane="0" toLane="0" dir="t" state="M"/>
    <connection from="84810593" to="-84810593" fromLane="0" toLane="0" dir="t" state="M"/>

</net>
