<?xml version="1.0" encoding="UTF-8"?>

<!-- generated on 10/23/14 11:37:10 by SUMO activitygen Version 0.21.0
<?xml version="1.0" encoding="UTF-8"?>

<configuration xmlns:xsi="http://www.w3.org/2001/XMLSchema-instance" xsi:noNamespaceSchemaLocation="http://sumo-sim.org/xsd/activitygenConfiguration.xsd">

    <input>
        <net-file value="..\map1.net.xml"/>
        <stat-file value="..\map1.stat.xml"/>
    </input>

    <output>
        <output-file value="..\map1.rou.xml"/>
    </output>

    <time>
        <duration-d value="1"/>
    </time>

    <random_number>
        <random value="true"/>
    </random_number>

</configuration>
-->

<routes xmlns:xsi="http://www.w3.org/2001/XMLSchema-instance" xsi:noNamespaceSchemaLocation="http://sumo-sim.org/xsd/routes_file.xsd">
    <vType id="default" accel="4.0" decel="8.0" sigma="0.0" length="5" minGap="2.5" maxSpeed="90"/>
    <vType id="random" accel="4.0" decel="8.0" sigma="0.0" length="5" minGap="2.5" maxSpeed="90"/>
    <vType id="bus" accel="2.0" decel="4.0" sigma="0.0" length="10" minGap="3" maxSpeed="70"/>

    <vehicle id="randUni98:1" type="random" depart="386" departPos="15.27" arrivalPos="30.85" departSpeed="0" arrivalSpeed="0" color="0,0,1">
        <route edges="53631335#0 71143715#0"/>
    </vehicle>
    <vehicle id="randUni3:1" type="random" depart="1224" departPos="91.64" arrivalPos="143.98" departSpeed="0" arrivalSpeed="0" color="0,0,1">
        <route edges="-53631335#2 -53631335#2"/>
    </vehicle>
    <vehicle id="randUni169:1" type="random" depart="2281" departPos="500.29" arrivalPos="10.31" departSpeed="0" arrivalSpeed="0" color="0,0,1">
        <route edges="53330868 -53631335#1"/>
    </vehicle>
    <vehicle id="randUni77:1" type="random" depart="2366" departPos="51.81" arrivalPos="172.27" departSpeed="0" arrivalSpeed="0" color="0,0,1">
        <route edges="-53631335#2 84810593"/>
    </vehicle>
    <vehicle id="randUni57:1" type="random" depart="2488" departPos="356.35" arrivalPos="73.85" departSpeed="0" arrivalSpeed="0" color="0,0,1">
        <route edges="-53268712#3 53631335#3"/>
    </vehicle>
    <vehicle id="randUni29:1" type="random" depart="2679" departPos="119.32" arrivalPos="54.75" departSpeed="0" arrivalSpeed="0" color="0,0,1">
        <route edges="53268712#3 -71143715#2"/>
    </vehicle>
    <vehicle id="randUni167:1" type="random" depart="2861" departPos="141.88" arrivalPos="156.13" departSpeed="0" arrivalSpeed="0" color="0,0,1">
        <route edges="-53631335#3 53330868"/>
    </vehicle>
    <vehicle id="randUni157:1" type="random" depart="3292" departPos="249.63" arrivalPos="323.58" departSpeed="0" arrivalSpeed="0" color="0,0,1">
        <route edges="53268712#3 71028858"/>
    </vehicle>
    <vehicle id="randUni11:1" type="random" depart="5574" departPos="10.84" arrivalPos="7.39" departSpeed="0" arrivalSpeed="0" color="0,0,1">
        <route edges="53631335#1 53631335#1"/>
    </vehicle>
    <vehicle id="randUni142:1" type="random" depart="6688" departPos="422.71" arrivalPos="150.04" departSpeed="0" arrivalSpeed="0" color="0,0,1">
        <route edges="-71028858 71143715#1"/>
    </vehicle>
    <vehicle id="randUni70:1" type="random" depart="6857" departPos="4.06" arrivalPos="16.94" departSpeed="0" arrivalSpeed="0" color="0,0,1">
        <route edges="-71143715#1 -71143715#0"/>
    </vehicle>
    <vehicle id="randUni122:1" type="random" depart="8300" departPos="388.32" arrivalPos="349.62" departSpeed="0" arrivalSpeed="0" color="0,0,1">
        <route edges="53330868 -71028858"/>
    </vehicle>
    <vehicle id="randUni120:1" type="random" depart="8630" departPos="34.43" arrivalPos="13.06" departSpeed="0" arrivalSpeed="0" color="0,0,1">
        <route edges="71143715#1 -53631335#1"/>
    </vehicle>
    <vehicle id="randUni128:1" type="random" depart="9101" departPos="478.77" arrivalPos="299.90" departSpeed="0" arrivalSpeed="0" color="0,0,1">
        <route edges="53268712#0 71143715#1"/>
    </vehicle>
    <vehicle id="randUni82:1" type="random" depart="10434" departPos="982.43" arrivalPos="18.39" departSpeed="0" arrivalSpeed="0" color="0,0,1">
        <route edges="53330868 71143715#0"/>
    </vehicle>
    <vehicle id="randUni48:1" type="random" depart="11038" departPos="13.71" arrivalPos="6.64" departSpeed="0" arrivalSpeed="0" color="0,0,1">
        <route edges="-71143715#2 -53631335#0"/>
    </vehicle>
    <vehicle id="randUni17:1" type="random" depart="11672" departPos="945.34" arrivalPos="8.04" departSpeed="0" arrivalSpeed="0" color="0,0,1">
        <route edges="53330868 -71143715#2"/>
    </vehicle>
    <vehicle id="randUni88:1" type="random" depart="11727" departPos="4.41" arrivalPos="25.81" departSpeed="0" arrivalSpeed="0" color="0,0,1">
        <route edges="-53631335#1 -71143715#1"/>
    </vehicle>
    <vehicle id="randUni67:1" type="random" depart="12546" departPos="105.38" arrivalPos="27.78" departSpeed="0" arrivalSpeed="0" color="0,0,1">
        <route edges="-53330868 -53631335#0"/>
    </vehicle>
    <vehicle id="randUni41:1" type="random" depart="12702" departPos="116.87" arrivalPos="190.09" departSpeed="0" arrivalSpeed="0" color="0,0,1">
        <route edges="-53268712#2 53268712#2"/>
    </vehicle>
    <vehicle id="randUni84:1" type="random" depart="14466" departPos="35.64" arrivalPos="274.02" departSpeed="0" arrivalSpeed="0" color="0,0,1">
        <route edges="-53631335#2 -84810593"/>
    </vehicle>
    <vehicle id="randUni65:1" type="random" depart="16156" departPos="2.55" arrivalPos="13.71" departSpeed="0" arrivalSpeed="0" color="0,0,1">
        <route edges="71143715#0 -53631335#0"/>
    </vehicle>
    <vehicle id="randUni91:1" type="random" depart="16752" departPos="298.16" arrivalPos="22.83" departSpeed="0" arrivalSpeed="0" color="0,0,1">
        <route edges="-71143715#1 -53631335#3"/>
    </vehicle>
    <vehicle id="randUni15:1" type="random" depart="17017" departPos="35.90" arrivalPos="237.99" departSpeed="0" arrivalSpeed="0" color="0,0,1">
        <route edges="-53268712#2 53631335#3"/>
    </vehicle>
    <vehicle id="randUni141:1" type="random" depart="17421" departPos="430.49" arrivalPos="195.07" departSpeed="0" arrivalSpeed="0" color="0,0,1">
        <route edges="53268712#3 -53268712#3"/>
    </vehicle>
    <vehicle id="randUni55:1" type="random" depart="18216" departPos="876.85" arrivalPos="277.55" departSpeed="0" arrivalSpeed="0" color="0,0,1">
        <route edges="-53330868 -53330868"/>
    </vehicle>
    <vehicle id="randUni4:1" type="random" depart="19570" departPos="98.75" arrivalPos="207.35" departSpeed="0" arrivalSpeed="0" color="0,0,1">
        <route edges="-53268712#0 -71028858"/>
    </vehicle>
    <vehicle id="bl601b1:1" type="bus" depart="21600" departPos="324.00" arrivalPos="456.00" departSpeed="0" arrivalSpeed="0" color="0,1,0">
        <route edges="-53631335#1 -53631335#0"/>
    </vehicle>
    <vehicle id="bl601b2:13" type="bus" depart="21600" departPos="456.00" arrivalPos="324.00" departSpeed="0" arrivalSpeed="0" color="0,1,0">
        <route edges="-53631335#0 -53631335#1"/>
    </vehicle>
    <vehicle id="bl601b3:1" type="bus" depart="22800" departPos="324.00" arrivalPos="456.00" departSpeed="0" arrivalSpeed="0" color="0,1,0">
        <route edges="-53631335#1 -53631335#0"/>
    </vehicle>
    <vehicle id="bl601b4:13" type="bus" depart="22800" departPos="456.00" arrivalPos="324.00" departSpeed="0" arrivalSpeed="0" color="0,1,0">
        <route edges="-53631335#0 -53631335#1"/>
    </vehicle>
    <vehicle id="randUni73:1" type="random" depart="23376" departPos="354.21" arrivalPos="188.30" departSpeed="0" arrivalSpeed="0" color="0,0,1">
        <route edges="-71143715#1 -53631335#3"/>
    </vehicle>
    <vehicle id="randUni152:1" type="random" depart="23951" departPos="12.32" arrivalPos="168.47" departSpeed="0" arrivalSpeed="0" color="0,0,1">
        <route edges="-53631335#1 -71143715#1"/>
    </vehicle>
    <vehicle id="bl601b5:1" type="bus" depart="24000" departPos="324.00" arrivalPos="456.00" departSpeed="0" arrivalSpeed="0" color="0,1,0">
        <route edges="-53631335#1 -53631335#0"/>
    </vehicle>
    <vehicle id="bl601b6:13" type="bus" depart="24000" departPos="456.00" arrivalPos="324.00" departSpeed="0" arrivalSpeed="0" color="0,1,0">
        <route edges="-53631335#0 -53631335#1"/>
    </vehicle>
    <vehicle id="randUni117:1" type="random" depart="24488" departPos="192.90" arrivalPos="80.06" departSpeed="0" arrivalSpeed="0" color="0,0,1">
        <route edges="-53268712#3 -53268712#2"/>
    </vehicle>
    <vehicle id="bl601b7:1" type="bus" depart="25200" departPos="324.00" arrivalPos="456.00" departSpeed="0" arrivalSpeed="0" color="0,1,0">
        <route edges="-53631335#1 -53631335#0"/>
    </vehicle>
    <vehicle id="bl601b8:11" type="bus" depart="25200" departPos="456.00" arrivalPos="324.00" departSpeed="0" arrivalSpeed="0" color="0,1,0">
        <route edges="-53631335#0 -53631335#1"/>
    </vehicle>
    <vehicle id="randUni83:1" type="random" depart="26310" departPos="191.79" arrivalPos="216.99" departSpeed="0" arrivalSpeed="0" color="0,0,1">
        <route edges="-71028858 53631335#3"/>
    </vehicle>
    <vehicle id="bl601b2:1" type="bus" depart="26400" departPos="324.00" arrivalPos="456.00" departSpeed="0" arrivalSpeed="0" color="0,1,0">
        <route edges="-53631335#1 -53631335#0"/>
    </vehicle>
    <vehicle id="bl601b1:13" type="bus" depart="26400" departPos="456.00" arrivalPos="324.00" departSpeed="0" arrivalSpeed="0" color="0,1,0">
        <route edges="-53631335#0 -53631335#1"/>
    </vehicle>
    <vehicle id="randUni1:1" type="random" depart="26516" departPos="142.25" arrivalPos="36.79" departSpeed="0" arrivalSpeed="0" color="0,0,1">
        <route edges="53268712#3 -53268712#3"/>
    </vehicle>
    <vehicle id="bl601b4:1" type="bus" depart="27600" departPos="324.00" arrivalPos="456.00" departSpeed="0" arrivalSpeed="0" color="0,1,0">
        <route edges="-53631335#1 -53631335#0"/>
    </vehicle>
    <vehicle id="bl601b3:13" type="bus" depart="27600" departPos="456.00" arrivalPos="324.00" departSpeed="0" arrivalSpeed="0" color="0,1,0">
        <route edges="-53631335#0 -53631335#1"/>
    </vehicle>
    <vehicle id="bl601b6:1" type="bus" depart="28800" departPos="324.00" arrivalPos="456.00" departSpeed="0" arrivalSpeed="0" color="0,1,0">
        <route edges="-53631335#1 -53631335#0"/>
    </vehicle>
    <vehicle id="bl601b5:13" type="bus" depart="28800" departPos="456.00" arrivalPos="324.00" departSpeed="0" arrivalSpeed="0" color="0,1,0">
        <route edges="-53631335#0 -53631335#1"/>
    </vehicle>
    <vehicle id="randUni42:1" type="random" depart="28986" departPos="678.12" arrivalPos="996.09" departSpeed="0" arrivalSpeed="0" color="0,0,1">
        <route edges="-53330868 -53330868"/>
    </vehicle>
    <vehicle id="bl601b8:1" type="bus" depart="30000" departPos="324.00" arrivalPos="456.00" departSpeed="0" arrivalSpeed="0" color="0,1,0">
        <route edges="-53631335#1 -53631335#0"/>
    </vehicle>
    <vehicle id="bl601b7:13" type="bus" depart="30000" departPos="456.00" arrivalPos="324.00" departSpeed="0" arrivalSpeed="0" color="0,1,0">
        <route edges="-53631335#0 -53631335#1"/>
    </vehicle>
    <vehicle id="carIn33:1" type="default" depart="30058" departPos="0.00" arrivalPos="1016.22" departSpeed="0" arrivalSpeed="0" color="1,0,0">
        <route edges="-53268712#3 -53330868"/>
    </vehicle>
    <vehicle id="carIn34:1" type="default" depart="30101" departPos="0.00" arrivalPos="400.99" departSpeed="0" arrivalSpeed="0" color="1,0,0">
        <route edges="53268712#0 53330868"/>
    </vehicle>
    <vehicle id="carIn76:1" type="default" depart="30158" departPos="0.00" arrivalPos="28.13" departSpeed="0" arrivalSpeed="0" color="1,0,0">
        <route edges="-53268712#3 -71143715#2"/>
    </vehicle>
    <vehicle id="carIn31:1" type="default" depart="30172" departPos="0.00" arrivalPos="104.91" departSpeed="0" arrivalSpeed="0" color="1,0,0">
        <route edges="-53268712#3 71143715#2"/>
    </vehicle>
    <vehicle id="carIn64:1" type="default" depart="30217" departPos="0.00" arrivalPos="82.63" departSpeed="0" arrivalSpeed="0" color="1,0,0">
        <route edges="-53268712#3 -71143715#2"/>
    </vehicle>
    <vehicle id="h93c2:1" type="default" depart="30226" departPos="31.62" arrivalPos="1014.16" departSpeed="0" arrivalSpeed="0" color="1,0,0">
        <route edges="-71028858 -53330868"/>
    </vehicle>
    <vehicle id="carIn84:1" type="default" depart="30226" departPos="0.00" arrivalPos="33.94" departSpeed="0" arrivalSpeed="0" color="1,0,0">
        <route edges="53268712#0 -71143715#2"/>
    </vehicle>
    <vehicle id="carIn12:1" type="default" depart="30229" departPos="0.00" arrivalPos="874.58" departSpeed="0" arrivalSpeed="0" color="1,0,0">
        <route edges="53268712#0 53330868"/>
    </vehicle>
    <vehicle id="carIn58:1" type="default" depart="30230" departPos="0.00" arrivalPos="119.50" departSpeed="0" arrivalSpeed="0" color="1,0,0">
        <route edges="-53268712#3 -53330868"/>
    </vehicle>
    <vehicle id="carIn78:1" type="default" depart="30243" departPos="0.00" arrivalPos="73.73" departSpeed="0" arrivalSpeed="0" color="1,0,0">
        <route edges="-53268712#3 53330868"/>
    </vehicle>
    <vehicle id="carIn45:1" type="default" depart="30246" departPos="0.00" arrivalPos="241.50" departSpeed="0" arrivalSpeed="0" color="1,0,0">
        <route edges="53268712#0 53330868"/>
    </vehicle>
    <vehicle id="carIn37:1" type="default" depart="30250" departPos="0.00" arrivalPos="290.67" departSpeed="0" arrivalSpeed="0" color="1,0,0">
        <route edges="-53268712#3 53330868"/>
    </vehicle>
    <vehicle id="h22c1:1" type="default" depart="30269" departPos="161.57" arrivalPos="173.93" departSpeed="0" arrivalSpeed="0" color="1,0,0">
        <route edges="-53631335#3 -53330868"/>
    </vehicle>
    <vehicle id="carIn25:1" type="default" depart="30289" departPos="0.00" arrivalPos="176.49" departSpeed="0" arrivalSpeed="0" color="1,0,0">
        <route edges="53268712#0 53330868"/>
    </vehicle>
    <vehicle id="carIn69:1" type="default" depart="30302" departPos="0.00" arrivalPos="720.02" departSpeed="0" arrivalSpeed="0" color="1,0,0">
        <route edges="-53268712#3 -53330868"/>
    </vehicle>
    <vehicle id="carIn15:1" type="default" depart="30304" departPos="0.00" arrivalPos="315.09" departSpeed="0" arrivalSpeed="0" color="1,0,0">
        <route edges="-53268712#3 53330868"/>
    </vehicle>
    <vehicle id="carIn8:1" type="default" depart="30311" departPos="0.00" arrivalPos="1001.65" departSpeed="0" arrivalSpeed="0" color="1,0,0">
        <route edges="53268712#0 -53330868"/>
    </vehicle>
    <vehicle id="carIn56:1" type="default" depart="30333" departPos="0.00" arrivalPos="43.14" departSpeed="0" arrivalSpeed="0" color="1,0,0">
        <route edges="-53268712#3 -71143715#2"/>
    </vehicle>
    <vehicle id="carIn4:1" type="default" depart="30344" departPos="0.00" arrivalPos="270.10" departSpeed="0" arrivalSpeed="0" color="1,0,0">
        <route edges="-53268712#3 53330868"/>
    </vehicle>
    <vehicle id="carIn68:1" type="default" depart="30352" departPos="0.00" arrivalPos="926.67" departSpeed="0" arrivalSpeed="0" color="1,0,0">
        <route edges="-53268712#3 -53330868"/>
    </vehicle>
    <vehicle id="carIn89:1" type="default" depart="30355" departPos="0.00" arrivalPos="771.02" departSpeed="0" arrivalSpeed="0" color="1,0,0">
        <route edges="-53268712#3 53330868"/>
    </vehicle>
    <vehicle id="carIn46:1" type="default" depart="30358" departPos="0.00" arrivalPos="206.33" departSpeed="0" arrivalSpeed="0" color="1,0,0">
        <route edges="-53268712#3 -53330868"/>
    </vehicle>
    <vehicle id="h14c1:1" type="default" depart="30360" departPos="58.82" arrivalPos="387.35" departSpeed="0" arrivalSpeed="0" color="1,0,0">
        <route edges="-84810593 53330868"/>
    </vehicle>
    <vehicle id="h80c1:1" type="default" depart="30371" departPos="231.22" arrivalPos="551.39" departSpeed="0" arrivalSpeed="0" color="1,0,0">
        <route edges="-71028858 -53330868"/>
    </vehicle>
    <vehicle id="carIn30:1" type="default" depart="30375" departPos="0.00" arrivalPos="4.96" departSpeed="0" arrivalSpeed="0" color="1,0,0">
        <route edges="-53268712#3 71143715#2"/>
    </vehicle>
    <vehicle id="carIn51:1" type="default" depart="30393" departPos="0.00" arrivalPos="91.68" departSpeed="0" arrivalSpeed="0" color="1,0,0">
        <route edges="53268712#0 53330868"/>
    </vehicle>
    <vehicle id="carIn99:1" type="default" depart="30394" departPos="0.00" arrivalPos="452.37" departSpeed="0" arrivalSpeed="0" color="1,0,0">
        <route edges="-53268712#3 53330868"/>
    </vehicle>
    <vehicle id="h17c1:1" type="default" depart="30399" departPos="61.56" arrivalPos="44.42" departSpeed="0" arrivalSpeed="0" color="1,0,0">
        <route edges="-84810593 -84810593"/>
    </vehicle>
    <vehicle id="carIn80:1" type="default" depart="30399" departPos="0.00" arrivalPos="78.17" departSpeed="0" arrivalSpeed="0" color="1,0,0">
        <route edges="-53268712#3 -71143715#2"/>
    </vehicle>
    <vehicle id="carIn17:1" type="default" depart="30404" departPos="0.00" arrivalPos="923.55" departSpeed="0" arrivalSpeed="0" color="1,0,0">
        <route edges="53268712#0 53330868"/>
    </vehicle>
    <vehicle id="carIn100:1" type="default" depart="30405" departPos="0.00" arrivalPos="565.66" departSpeed="0" arrivalSpeed="0" color="1,0,0">
        <route edges="53268712#0 -53330868"/>
    </vehicle>
    <vehicle id="carIn5:1" type="default" depart="30426" departPos="0.00" arrivalPos="187.53" departSpeed="0" arrivalSpeed="0" color="1,0,0">
        <route edges="53268712#0 -53330868"/>
    </vehicle>
    <vehicle id="randUni153:1" type="random" depart="30431" departPos="16.10" arrivalPos="39.14" departSpeed="0" arrivalSpeed="0" color="0,0,1">
        <route edges="-53631335#1 71143715#2"/>
    </vehicle>
    <vehicle id="carIn36:1" type="default" depart="30441" departPos="0.00" arrivalPos="419.33" departSpeed="0" arrivalSpeed="0" color="1,0,0">
        <route edges="-53268712#3 53330868"/>
    </vehicle>
    <vehicle id="carIn57:1" type="default" depart="30451" departPos="0.00" arrivalPos="642.39" departSpeed="0" arrivalSpeed="0" color="1,0,0">
        <route edges="-53268712#3 53330868"/>
    </vehicle>
    <vehicle id="carIn13:1" type="default" depart="30462" departPos="0.00" arrivalPos="220.51" departSpeed="0" arrivalSpeed="0" color="1,0,0">
        <route edges="-53268712#3 -53330868"/>
    </vehicle>
    <vehicle id="carIn74:1" type="default" depart="30468" departPos="0.00" arrivalPos="6.32" departSpeed="0" arrivalSpeed="0" color="1,0,0">
        <route edges="53268712#0 -71143715#2"/>
    </vehicle>
    <vehicle id="carIn50:1" type="default" depart="30470" departPos="0.00" arrivalPos="922.49" departSpeed="0" arrivalSpeed="0" color="1,0,0">
        <route edges="53268712#0 -53330868"/>
    </vehicle>
    <vehicle id="h53c1:1" type="default" depart="30483" departPos="36.01" arrivalPos="545.17" departSpeed="0" arrivalSpeed="0" color="1,0,0">
        <route edges="-53631335#3 -53330868"/>
    </vehicle>
    <vehicle id="h42c1:1" type="default" depart="30497" departPos="43.88" arrivalPos="492.88" departSpeed="0" arrivalSpeed="0" color="1,0,0">
        <route edges="-53631335#3 -53330868"/>
    </vehicle>
    <vehicle id="carIn75:1" type="default" depart="30543" departPos="0.00" arrivalPos="889.60" departSpeed="0" arrivalSpeed="0" color="1,0,0">
        <route edges="53268712#0 -53330868"/>
    </vehicle>
    <vehicle id="h33c1:1" type="default" depart="30550" departPos="142.04" arrivalPos="222.18" departSpeed="0" arrivalSpeed="0" color="1,0,0">
        <route edges="-53631335#3 53330868"/>
    </vehicle>
    <vehicle id="carIn29:1" type="default" depart="30618" departPos="0.00" arrivalPos="56.69" departSpeed="0" arrivalSpeed="0" color="1,0,0">
        <route edges="53268712#0 71143715#2"/>
    </vehicle>
    <vehicle id="carIn11:1" type="default" depart="30648" departPos="0.00" arrivalPos="431.48" departSpeed="0" arrivalSpeed="0" color="1,0,0">
        <route edges="-53268712#3 -53330868"/>
    </vehicle>
    <vehicle id="randUni94:1" type="random" depart="30654" departPos="406.95" arrivalPos="394.25" departSpeed="0" arrivalSpeed="0" color="0,0,1">
        <route edges="-53268712#3 53268712#3"/>
    </vehicle>
    <vehicle id="h48c1:1" type="default" depart="30870" departPos="263.62" arrivalPos="150.67" departSpeed="0" arrivalSpeed="0" color="1,0,0">
        <route edges="-53631335#3 53268712#0"/>
    </vehicle>
    <vehicle id="bl601b1:3" type="bus" depart="31200" departPos="324.00" arrivalPos="456.00" departSpeed="0" arrivalSpeed="0" color="0,1,0">
        <route edges="-53631335#1 -53631335#0"/>
    </vehicle>
    <vehicle id="bl601b2:15" type="bus" depart="31200" departPos="456.00" arrivalPos="324.00" departSpeed="0" arrivalSpeed="0" color="0,1,0">
        <route edges="-53631335#0 -53631335#1"/>
    </vehicle>
    <vehicle id="randUni101:1" type="random" depart="31253" departPos="15.90" arrivalPos="13.19" departSpeed="0" arrivalSpeed="0" color="0,0,1">
        <route edges="53268712#1 -71143715#0"/>
    </vehicle>
    <vehicle id="carIn43:1" type="default" depart="31864" departPos="0.00" arrivalPos="340.63" departSpeed="0" arrivalSpeed="0" color="1,0,0">
        <route edges="-53268712#3 -53330868"/>
    </vehicle>
    <vehicle id="carIn6:1" type="default" depart="31879" departPos="0.00" arrivalPos="445.79" departSpeed="0" arrivalSpeed="0" color="1,0,0">
        <route edges="-53268712#3 -53330868"/>
    </vehicle>
    <vehicle id="carIn18:1" type="default" depart="31975" departPos="0.00" arrivalPos="748.29" departSpeed="0" arrivalSpeed="0" color="1,0,0">
        <route edges="53268712#0 53330868"/>
    </vehicle>
    <vehicle id="carIn16:1" type="default" depart="31994" departPos="0.00" arrivalPos="567.79" departSpeed="0" arrivalSpeed="0" color="1,0,0">
        <route edges="-53268712#3 -53330868"/>
    </vehicle>
    <vehicle id="carIn21:1" type="default" depart="31997" departPos="0.00" arrivalPos="630.53" departSpeed="0" arrivalSpeed="0" color="1,0,0">
        <route edges="53268712#0 -53330868"/>
    </vehicle>
    <vehicle id="carIn70:1" type="default" depart="32002" departPos="0.00" arrivalPos="1036.56" departSpeed="0" arrivalSpeed="0" color="1,0,0">
        <route edges="-53268712#3 -53330868"/>
    </vehicle>
    <vehicle id="carIn61:1" type="default" depart="32010" departPos="0.00" arrivalPos="225.29" departSpeed="0" arrivalSpeed="0" color="1,0,0">
        <route edges="-53268712#3 53330868"/>
    </vehicle>
    <vehicle id="h98c1:1" type="default" depart="32024" departPos="234.73" arrivalPos="485.20" departSpeed="0" arrivalSpeed="0" color="1,0,0">
        <route edges="-71028858 53330868"/>
    </vehicle>
    <vehicle id="h75c1:1" type="default" depart="32026" departPos="81.35" arrivalPos="637.23" departSpeed="0" arrivalSpeed="0" color="1,0,0">
        <route edges="-71028858 53330868"/>
    </vehicle>
    <vehicle id="carIn47:1" type="default" depart="32027" departPos="0.00" arrivalPos="199.43" departSpeed="0" arrivalSpeed="0" color="1,0,0">
        <route edges="-53268712#3 -53330868"/>
    </vehicle>
    <vehicle id="carIn91:1" type="default" depart="32041" departPos="0.00" arrivalPos="114.82" departSpeed="0" arrivalSpeed="0" color="1,0,0">
        <route edges="-53268712#3 53330868"/>
    </vehicle>
    <vehicle id="carIn54:1" type="default" depart="32052" departPos="0.00" arrivalPos="432.53" departSpeed="0" arrivalSpeed="0" color="1,0,0">
        <route edges="-53268712#3 -53330868"/>
    </vehicle>
    <vehicle id="carIn88:1" type="default" depart="32062" departPos="0.00" arrivalPos="240.17" departSpeed="0" arrivalSpeed="0" color="1,0,0">
        <route edges="53268712#0 53330868"/>
    </vehicle>
    <vehicle id="carIn86:1" type="default" depart="32069" departPos="0.00" arrivalPos="49.06" departSpeed="0" arrivalSpeed="0" color="1,0,0">
        <route edges="53268712#0 -71143715#2"/>
    </vehicle>
    <vehicle id="carIn62:1" type="default" depart="32073" departPos="0.00" arrivalPos="224.74" departSpeed="0" arrivalSpeed="0" color="1,0,0">
        <route edges="-53268712#3 -53330868"/>
    </vehicle>
    <vehicle id="carIn1:1" type="default" depart="32075" departPos="0.00" arrivalPos="754.84" departSpeed="0" arrivalSpeed="0" color="1,0,0">
        <route edges="53268712#0 -53330868"/>
    </vehicle>
    <vehicle id="carIn49:1" type="default" depart="32086" departPos="0.00" arrivalPos="759.60" departSpeed="0" arrivalSpeed="0" color="1,0,0">
        <route edges="-53268712#3 53330868"/>
    </vehicle>
    <vehicle id="carIn48:1" type="default" depart="32096" departPos="0.00" arrivalPos="632.11" departSpeed="0" arrivalSpeed="0" color="1,0,0">
        <route edges="-53268712#3 53330868"/>
    </vehicle>
    <vehicle id="carIn10:1" type="default" depart="32101" departPos="0.00" arrivalPos="38.78" departSpeed="0" arrivalSpeed="0" color="1,0,0">
        <route edges="53268712#0 53330868"/>
    </vehicle>
    <vehicle id="carIn32:1" type="default" depart="32103" departPos="0.00" arrivalPos="526.52" departSpeed="0" arrivalSpeed="0" color="1,0,0">
        <route edges="53268712#0 -53330868"/>
    </vehicle>
    <vehicle id="h52c1:1" type="default" depart="32109" departPos="19.98" arrivalPos="292.93" departSpeed="0" arrivalSpeed="0" color="1,0,0">
        <route edges="-53631335#3 53330868"/>
    </vehicle>
    <vehicle id="carIn14:1" type="default" depart="32109" departPos="0.00" arrivalPos="100.71" departSpeed="0" arrivalSpeed="0" color="1,0,0">
        <route edges="-53268712#3 71143715#2"/>
    </vehicle>
    <vehicle id="carIn97:1" type="default" depart="32121" departPos="0.00" arrivalPos="448.19" departSpeed="0" arrivalSpeed="0" color="1,0,0">
        <route edges="53268712#0 -53330868"/>
    </vehicle>
    <vehicle id="carIn19:1" type="default" depart="32123" departPos="0.00" arrivalPos="592.31" departSpeed="0" arrivalSpeed="0" color="1,0,0">
        <route edges="53268712#0 -53330868"/>
    </vehicle>
    <vehicle id="carIn39:1" type="default" depart="32126" departPos="0.00" arrivalPos="63.84" departSpeed="0" arrivalSpeed="0" color="1,0,0">
        <route edges="53268712#0 71143715#2"/>
    </vehicle>
    <vehicle id="carIn71:1" type="default" depart="32126" departPos="0.00" arrivalPos="553.38" departSpeed="0" arrivalSpeed="0" color="1,0,0">
        <route edges="53268712#0 -53330868"/>
    </vehicle>
    <vehicle id="carIn92:1" type="default" depart="32132" departPos="0.00" arrivalPos="609.49" departSpeed="0" arrivalSpeed="0" color="1,0,0">
        <route edges="53268712#0 53330868"/>
    </vehicle>
    <vehicle id="carIn98:1" type="default" depart="32138" departPos="0.00" arrivalPos="739.69" departSpeed="0" arrivalSpeed="0" color="1,0,0">
        <route edges="53268712#0 -53330868"/>
    </vehicle>
    <vehicle id="carIn26:1" type="default" depart="32144" departPos="0.00" arrivalPos="139.44" departSpeed="0" arrivalSpeed="0" color="1,0,0">
        <route edges="-53268712#3 53330868"/>
    </vehicle>
    <vehicle id="h93c1:1" type="default" depart="32145" departPos="31.62" arrivalPos="371.49" departSpeed="0" arrivalSpeed="0" color="1,0,0">
        <route edges="-71028858 53330868"/>
    </vehicle>
    <vehicle id="carIn72:1" type="default" depart="32150" departPos="0.00" arrivalPos="93.82" departSpeed="0" arrivalSpeed="0" color="1,0,0">
        <route edges="-53268712#3 53330868"/>
    </vehicle>
    <vehicle id="carIn24:1" type="default" depart="32152" departPos="0.00" arrivalPos="955.84" departSpeed="0" arrivalSpeed="0" color="1,0,0">
        <route edges="53268712#0 -53330868"/>
    </vehicle>
    <vehicle id="carIn66:1" type="default" depart="32152" departPos="0.00" arrivalPos="674.60" departSpeed="0" arrivalSpeed="0" color="1,0,0">
        <route edges="53268712#0 -53330868"/>
    </vehicle>
    <vehicle id="carIn3:1" type="default" depart="32156" departPos="0.00" arrivalPos="245.45" departSpeed="0" arrivalSpeed="0" color="1,0,0">
        <route edges="-53268712#3 53330868"/>
    </vehicle>
    <vehicle id="randUni13:1" type="random" depart="32162" departPos="324.37" arrivalPos="48.98" departSpeed="0" arrivalSpeed="0" color="0,0,1">
        <route edges="53268712#0 53268712#2"/>
    </vehicle>
    <vehicle id="h33c2:1" type="default" depart="32167" departPos="142.04" arrivalPos="216.24" departSpeed="0" arrivalSpeed="0" color="1,0,0">
        <route edges="-53631335#3 -53330868"/>
    </vehicle>
    <vehicle id="carIn79:1" type="default" depart="32172" departPos="0.00" arrivalPos="942.84" departSpeed="0" arrivalSpeed="0" color="1,0,0">
        <route edges="-53268712#3 53330868"/>
    </vehicle>
    <vehicle id="h50c1:1" type="default" depart="32175" departPos="207.06" arrivalPos="209.99" departSpeed="0" arrivalSpeed="0" color="1,0,0">
        <route edges="-53631335#3 -53330868"/>
    </vehicle>
    <vehicle id="carIn94:1" type="default" depart="32176" departPos="0.00" arrivalPos="191.50" departSpeed="0" arrivalSpeed="0" color="1,0,0">
        <route edges="53268712#0 -53330868"/>
    </vehicle>
    <vehicle id="h20c1:1" type="default" depart="32180" departPos="123.20" arrivalPos="569.11" departSpeed="0" arrivalSpeed="0" color="1,0,0">
        <route edges="-53631335#3 -53330868"/>
    </vehicle>
    <vehicle id="h89c1:1" type="default" depart="32180" departPos="183.74" arrivalPos="490.07" departSpeed="0" arrivalSpeed="0" color="1,0,0">
        <route edges="-71028858 -53330868"/>
    </vehicle>
    <vehicle id="carIn73:1" type="default" depart="32185" departPos="0.00" arrivalPos="271.58" departSpeed="0" arrivalSpeed="0" color="1,0,0">
        <route edges="53268712#0 -53330868"/>
    </vehicle>
    <vehicle id="carIn93:1" type="default" depart="32188" departPos="0.00" arrivalPos="384.70" departSpeed="0" arrivalSpeed="0" color="1,0,0">
        <route edges="-53268712#3 -53330868"/>
    </vehicle>