<?xml version="1.0" encoding="UTF-8"?>

<!-- generated on 10/19/14 13:38:13 by SUMO activitygen Version 0.21.0
<?xml version="1.0" encoding="UTF-8"?>

<configuration xmlns:xsi="http://www.w3.org/2001/XMLSchema-instance" xsi:noNamespaceSchemaLocation="http://sumo-sim.org/xsd/activitygenConfiguration.xsd">

    <input>
        <net-file value="..\map1.net.xml"/>
        <stat-file value="..\map1.stat.xml"/>
    </input>

    <output>
        <output-file value="..\map1.rou.xml"/>
    </output>

    <time>
        <duration-d value="1"/>
    </time>

    <random_number>
        <random value="true"/>
    </random_number>

</configuration>
-->

<routes xmlns:xsi="http://www.w3.org/2001/XMLSchema-instance" xsi:noNamespaceSchemaLocation="http://sumo-sim.org/xsd/routes_file.xsd">
    <vType id="default" accel="4.0" decel="8.0" sigma="0.0" length="5" minGap="2.5" maxSpeed="90"/>
    <vType id="random" accel="4.0" decel="8.0" sigma="0.0" length="5" minGap="2.5" maxSpeed="90"/>
    <vType id="bus" accel="2.0" decel="4.0" sigma="0.0" length="10" minGap="3" maxSpeed="70"/>

    <vehicle id="randUni85:1" type="random" depart="549" departPos="241.57" arrivalPos="188.78" departSpeed="0" arrivalSpeed="0" color="0,0,1">
        <route edges="-84810593 53268712#2"/>
    </vehicle>
    <vehicle id="randUni81:1" type="random" depart="2150" departPos="39.08" arrivalPos="3.47" departSpeed="0" arrivalSpeed="0" color="0,0,1">
        <route edges="71143715#1 53268712#1"/>
    </vehicle>
    <vehicle id="randUni20:1" type="random" depart="3084" departPos="316.91" arrivalPos="20.89" departSpeed="0" arrivalSpeed="0" color="0,0,1">
        <route edges="71028858 84810593"/>
    </vehicle>
    <vehicle id="randUni160:1" type="random" depart="3843" departPos="75.29" arrivalPos="10.26" departSpeed="0" arrivalSpeed="0" color="0,0,1">
        <route edges="-53631335#2 53268712#1"/>
    </vehicle>
    <vehicle id="randUni103:1" type="random" depart="5134" departPos="179.10" arrivalPos="49.25" departSpeed="0" arrivalSpeed="0" color="0,0,1">
        <route edges="84810593 -71143715#2"/>
    </vehicle>
    <vehicle id="randUni77:1" type="random" depart="5233" departPos="281.98" arrivalPos="8.37" departSpeed="0" arrivalSpeed="0" color="0,0,1">
        <route edges="53268712#3 53631335#1"/>
    </vehicle>
    <vehicle id="randUni18:1" type="random" depart="5946" departPos="122.75" arrivalPos="28.51" departSpeed="0" arrivalSpeed="0" color="0,0,1">
        <route edges="-71028858 84810593"/>
    </vehicle>
    <vehicle id="randUni38:1" type="random" depart="6925" departPos="16.26" arrivalPos="30.15" departSpeed="0" arrivalSpeed="0" color="0,0,1">
        <route edges="-71143715#0 53631335#2"/>
    </vehicle>
    <vehicle id="randUni151:1" type="random" depart="6978" departPos="458.89" arrivalPos="45.97" departSpeed="0" arrivalSpeed="0" color="0,0,1">
        <route edges="-53268712#0 -84810593"/>
    </vehicle>
    <vehicle id="randUni59:1" type="random" depart="7317" departPos="987.65" arrivalPos="162.82" departSpeed="0" arrivalSpeed="0" color="0,0,1">
        <route edges="-53330868 -53631335#3"/>
    </vehicle>
    <vehicle id="randUni131:1" type="random" depart="8215" departPos="206.39" arrivalPos="8.72" departSpeed="0" arrivalSpeed="0" color="0,0,1">
        <route edges="53330868 53268712#2"/>
    </vehicle>
    <vehicle id="randUni166:1" type="random" depart="8435" departPos="278.28" arrivalPos="8.84" departSpeed="0" arrivalSpeed="0" color="0,0,1">
        <route edges="-84810593 71143715#0"/>
    </vehicle>
    <vehicle id="randUni23:1" type="random" depart="9146" departPos="105.73" arrivalPos="9.49" departSpeed="0" arrivalSpeed="0" color="0,0,1">
        <route edges="53268712#2 -53268712#1"/>
    </vehicle>
    <vehicle id="randUni174:1" type="random" depart="9921" departPos="9.41" arrivalPos="80.20" departSpeed="0" arrivalSpeed="0" color="0,0,1">
        <route edges="-53631335#0 53330868"/>
    </vehicle>
    <vehicle id="randUni26:1" type="random" depart="12374" departPos="101.40" arrivalPos="3.37" departSpeed="0" arrivalSpeed="0" color="0,0,1">
        <route edges="-84810593 -53268712#1"/>
    </vehicle>
    <vehicle id="randUni115:1" type="random" depart="14987" departPos="405.23" arrivalPos="48.17" departSpeed="0" arrivalSpeed="0" color="0,0,1">
        <route edges="-53268712#0 -71143715#2"/>
    </vehicle>
    <vehicle id="randUni73:1" type="random" depart="15280" departPos="155.51" arrivalPos="79.09" departSpeed="0" arrivalSpeed="0" color="0,0,1">
        <route edges="53631335#2 53268712#2"/>
    </vehicle>
    <vehicle id="randUni62:1" type="random" depart="16795" departPos="91.32" arrivalPos="1.45" departSpeed="0" arrivalSpeed="0" color="0,0,1">
        <route edges="-71143715#2 -53631335#1"/>
    </vehicle>
    <vehicle id="randUni90:1" type="random" depart="16976" departPos="13.23" arrivalPos="11.14" departSpeed="0" arrivalSpeed="0" color="0,0,1">
        <route edges="-53268712#1 53631335#0"/>
    </vehicle>
    <vehicle id="randUni58:1" type="random" depart="18741" departPos="4.66" arrivalPos="4.00" departSpeed="0" arrivalSpeed="0" color="0,0,1">
        <route edges="53268712#1 -53631335#1"/>
    </vehicle>
    <vehicle id="randUni140:1" type="random" depart="19466" departPos="312.83" arrivalPos="372.00" departSpeed="0" arrivalSpeed="0" color="0,0,1">
        <route edges="53268712#3 53268712#0"/>
    </vehicle>
    <vehicle id="randUni24:1" type="random" depart="20656" departPos="805.59" arrivalPos="174.65" departSpeed="0" arrivalSpeed="0" color="0,0,1">
        <route edges="-53330868 -53631335#3"/>
    </vehicle>
    <vehicle id="randUni31:1" type="random" depart="20811" departPos="64.89" arrivalPos="13.27" departSpeed="0" arrivalSpeed="0" color="0,0,1">
        <route edges="-53268712#3 -71143715#0"/>
    </vehicle>
    <vehicle id="randUni76:1" type="random" depart="21036" departPos="38.86" arrivalPos="209.91" departSpeed="0" arrivalSpeed="0" color="0,0,1">
        <route edges="84810593 53330868"/>
    </vehicle>
    <vehicle id="randUni92:1" type="random" depart="21365" departPos="12.31" arrivalPos="103.01" departSpeed="0" arrivalSpeed="0" color="0,0,1">
        <route edges="53631335#2 71028858"/>
    </vehicle>
    <vehicle id="bl601b1:1" type="bus" depart="21600" departPos="324.00" arrivalPos="456.00" departSpeed="0" arrivalSpeed="0" color="0,1,0">
        <route edges="-53631335#1 -53631335#0"/>
    </vehicle>
    <vehicle id="bl601b2:13" type="bus" depart="21600" departPos="456.00" arrivalPos="324.00" departSpeed="0" arrivalSpeed="0" color="0,1,0">
        <route edges="-53631335#0 -53631335#1"/>
    </vehicle>
    <vehicle id="randUni97:1" type="random" depart="21873" departPos="18.14" arrivalPos="183.31" departSpeed="0" arrivalSpeed="0" color="0,0,1">
        <route edges="71143715#0 53330868"/>
    </vehicle>
    <vehicle id="randUni178:1" type="random" depart="22009" departPos="70.33" arrivalPos="4.52" departSpeed="0" arrivalSpeed="0" color="0,0,1">
        <route edges="53631335#3 -53268712#1"/>
    </vehicle>
    <vehicle id="randUni40:1" type="random" depart="22496" departPos="252.92" arrivalPos="42.49" departSpeed="0" arrivalSpeed="0" color="0,0,1">
        <route edges="53268712#0 -53631335#3"/>
    </vehicle>
    <vehicle id="bl601b3:1" type="bus" depart="22800" departPos="324.00" arrivalPos="456.00" departSpeed="0" arrivalSpeed="0" color="0,1,0">
        <route edges="-53631335#1 -53631335#0"/>
    </vehicle>
    <vehicle id="bl601b4:13" type="bus" depart="22800" departPos="456.00" arrivalPos="324.00" departSpeed="0" arrivalSpeed="0" color="0,1,0">
        <route edges="-53631335#0 -53631335#1"/>
    </vehicle>
    <vehicle id="randUni2:1" type="random" depart="23314" departPos="313.71" arrivalPos="247.48" departSpeed="0" arrivalSpeed="0" color="0,0,1">
        <route edges="53268712#0 53631335#3"/>
    </vehicle>
    <vehicle id="randUni87:1" type="random" depart="23622" departPos="73.26" arrivalPos="112.58" departSpeed="0" arrivalSpeed="0" color="0,0,1">
        <route edges="84810593 71028858"/>
    </vehicle>
    <vehicle id="bl601b5:1" type="bus" depart="24000" departPos="324.00" arrivalPos="456.00" departSpeed="0" arrivalSpeed="0" color="0,1,0">
        <route edges="-53631335#1 -53631335#0"/>
    </vehicle>
    <vehicle id="bl601b6:13" type="bus" depart="24000" departPos="456.00" arrivalPos="324.00" departSpeed="0" arrivalSpeed="0" color="0,1,0">
        <route edges="-53631335#0 -53631335#1"/>
    </vehicle>
    <vehicle id="bl601b7:1" type="bus" depart="25200" departPos="324.00" arrivalPos="456.00" departSpeed="0" arrivalSpeed="0" color="0,1,0">
        <route edges="-53631335#1 -53631335#0"/>
    </vehicle>
    <vehicle id="bl601b8:11" type="bus" depart="25200" departPos="456.00" arrivalPos="324.00" departSpeed="0" arrivalSpeed="0" color="0,1,0">
        <route edges="-53631335#0 -53631335#1"/>
    </vehicle>
    <vehicle id="randUni80:1" type="random" depart="25602" departPos="9.61" arrivalPos="183.14" departSpeed="0" arrivalSpeed="0" color="0,0,1">
        <route edges="53268712#2 -53330868"/>
    </vehicle>
    <vehicle id="bl601b2:1" type="bus" depart="26400" departPos="324.00" arrivalPos="456.00" departSpeed="0" arrivalSpeed="0" color="0,1,0">
        <route edges="-53631335#1 -53631335#0"/>
    </vehicle>
    <vehicle id="bl601b1:13" type="bus" depart="26400" departPos="456.00" arrivalPos="324.00" departSpeed="0" arrivalSpeed="0" color="0,1,0">
        <route edges="-53631335#0 -53631335#1"/>
    </vehicle>
    <vehicle id="randUni114:1" type="random" depart="26902" departPos="86.42" arrivalPos="18.31" departSpeed="0" arrivalSpeed="0" color="0,0,1">
        <route edges="-71143715#2 -53330868"/>
    </vehicle>
    <vehicle id="randUni4:1" type="random" depart="27147" departPos="315.89" arrivalPos="641.23" departSpeed="0" arrivalSpeed="0" color="0,0,1">
        <route edges="53631335#3 -53330868"/>
    </vehicle>
    <vehicle id="randUni170:1" type="random" depart="27559" departPos="0.25" arrivalPos="283.20" departSpeed="0" arrivalSpeed="0" color="0,0,1">
        <route edges="-53631335#0 -53268712#0"/>
    </vehicle>
    <vehicle id="bl601b4:1" type="bus" depart="27600" departPos="324.00" arrivalPos="456.00" departSpeed="0" arrivalSpeed="0" color="0,1,0">
        <route edges="-53631335#1 -53631335#0"/>
    </vehicle>
    <vehicle id="bl601b3:13" type="bus" depart="27600" departPos="456.00" arrivalPos="324.00" departSpeed="0" arrivalSpeed="0" color="0,1,0">
        <route edges="-53631335#0 -53631335#1"/>
    </vehicle>
    <vehicle id="bl601b6:1" type="bus" depart="28800" departPos="324.00" arrivalPos="456.00" departSpeed="0" arrivalSpeed="0" color="0,1,0">
        <route edges="-53631335#1 -53631335#0"/>
    </vehicle>
    <vehicle id="bl601b5:13" type="bus" depart="28800" departPos="456.00" arrivalPos="324.00" departSpeed="0" arrivalSpeed="0" color="0,1,0">
        <route edges="-53631335#0 -53631335#1"/>
    </vehicle>
    <vehicle id="bl601b8:1" type="bus" depart="30000" departPos="324.00" arrivalPos="456.00" departSpeed="0" arrivalSpeed="0" color="0,1,0">
        <route edges="-53631335#1 -53631335#0"/>
    </vehicle>
    <vehicle id="bl601b7:13" type="bus" depart="30000" departPos="456.00" arrivalPos="324.00" departSpeed="0" arrivalSpeed="0" color="0,1,0">
        <route edges="-53631335#0 -53631335#1"/>
    </vehicle>
    <vehicle id="h85c1:1" type="default" depart="30022" departPos="228.79" arrivalPos="9.96" departSpeed="0" arrivalSpeed="0" color="1,0,0">
        <route edges="-71028858 -71143715#2"/>
    </vehicle>
    <vehicle id="carIn91:1" type="default" depart="30105" departPos="0.00" arrivalPos="604.62" departSpeed="0" arrivalSpeed="0" color="1,0,0">
        <route edges="-53268712#3 53330868"/>
    </vehicle>
    <vehicle id="carIn77:1" type="default" depart="30106" departPos="0.00" arrivalPos="179.62" departSpeed="0" arrivalSpeed="0" color="1,0,0">
        <route edges="-53268712#3 53330868"/>
    </vehicle>
    <vehicle id="carIn67:1" type="default" depart="30167" departPos="0.00" arrivalPos="422.93" departSpeed="0" arrivalSpeed="0" color="1,0,0">
        <route edges="-53268712#3 -53330868"/>
    </vehicle>
    <vehicle id="carIn61:1" type="default" depart="30223" departPos="0.00" arrivalPos="471.88" departSpeed="0" arrivalSpeed="0" color="1,0,0">
        <route edges="-53268712#3 -53330868"/>
    </vehicle>
    <vehicle id="randUni41:1" type="random" depart="30275" departPos="141.80" arrivalPos="140.56" departSpeed="0" arrivalSpeed="0" color="0,0,1">
        <route edges="-53268712#0 71143715#1"/>
    </vehicle>
    <vehicle id="carIn11:1" type="default" depart="30296" departPos="0.00" arrivalPos="3.08" departSpeed="0" arrivalSpeed="0" color="1,0,0">
        <route edges="53268712#0 53330868"/>
    </vehicle>
    <vehicle id="h15c1:1" type="default" depart="30307" departPos="174.27" arrivalPos="867.71" departSpeed="0" arrivalSpeed="0" color="1,0,0">
        <route edges="-84810593 53330868"/>
    </vehicle>
    <vehicle id="carIn70:1" type="default" depart="30330" departPos="0.00" arrivalPos="794.13" departSpeed="0" arrivalSpeed="0" color="1,0,0">
        <route edges="-53268712#3 -53330868"/>
    </vehicle>
    <vehicle id="carIn88:1" type="default" depart="30331" departPos="0.00" arrivalPos="7.51" departSpeed="0" arrivalSpeed="0" color="1,0,0">
        <route edges="53268712#0 -53330868"/>
    </vehicle>
    <vehicle id="carIn90:1" type="default" depart="30348" departPos="0.00" arrivalPos="840.84" departSpeed="0" arrivalSpeed="0" color="1,0,0">
        <route edges="53268712#0 -53330868"/>
    </vehicle>
    <vehicle id="carIn30:1" type="default" depart="30361" departPos="0.00" arrivalPos="581.05" departSpeed="0" arrivalSpeed="0" color="1,0,0">
        <route edges="53268712#0 -53330868"/>
    </vehicle>
    <vehicle id="carIn48:1" type="default" depart="30362" departPos="0.00" arrivalPos="55.12" departSpeed="0" arrivalSpeed="0" color="1,0,0">
        <route edges="-53268712#3 -71143715#2"/>
    </vehicle>
    <vehicle id="carIn7:1" type="default" depart="30370" departPos="0.00" arrivalPos="18.07" departSpeed="0" arrivalSpeed="0" color="1,0,0">
        <route edges="-53268712#3 71143715#2"/>
    </vehicle>
    <vehicle id="carIn6:1" type="default" depart="30371" departPos="0.00" arrivalPos="393.70" departSpeed="0" arrivalSpeed="0" color="1,0,0">
        <route edges="53268712#0 -53330868"/>
    </vehicle>
    <vehicle id="h93c1:1" type="default" depart="30372" departPos="125.67" arrivalPos="861.99" departSpeed="0" arrivalSpeed="0" color="1,0,0">
        <route edges="-71028858 -53330868"/>
    </vehicle>
    <vehicle id="carIn62:1" type="default" depart="30372" departPos="0.00" arrivalPos="329.68" departSpeed="0" arrivalSpeed="0" color="1,0,0">
        <route edges="53268712#0 53330868"/>
    </vehicle>
    <vehicle id="carIn46:1" type="default" depart="30377" departPos="0.00" arrivalPos="25.78" departSpeed="0" arrivalSpeed="0" color="1,0,0">
        <route edges="-53268712#3 -71143715#2"/>
    </vehicle>
    <vehicle id="carIn27:1" type="default" depart="30380" departPos="0.00" arrivalPos="409.10" departSpeed="0" arrivalSpeed="0" color="1,0,0">
        <route edges="53268712#0 -53330868"/>
    </vehicle>
    <vehicle id="carIn53:1" type="default" depart="30384" departPos="0.00" arrivalPos="289.03" departSpeed="0" arrivalSpeed="0" color="1,0,0">
        <route edges="-53268712#3 -53330868"/>
    </vehicle>
    <vehicle id="carIn63:1" type="default" depart="30386" departPos="0.00" arrivalPos="453.81" departSpeed="0" arrivalSpeed="0" color="1,0,0">
        <route edges="-53268712#3 53330868"/>
    </vehicle>
    <vehicle id="carIn97:1" type="default" depart="30406" departPos="0.00" arrivalPos="584.43" departSpeed="0" arrivalSpeed="0" color="1,0,0">
        <route edges="-53268712#3 -53330868"/>
    </vehicle>
    <vehicle id="carIn32:1" type="default" depart="30414" departPos="0.00" arrivalPos="1029.37" departSpeed="0" arrivalSpeed="0" color="1,0,0">
        <route edges="53268712#0 53330868"/>
    </vehicle>
    <vehicle id="carIn37:1" type="default" depart="30414" departPos="0.00" arrivalPos="1027.70" departSpeed="0" arrivalSpeed="0" color="1,0,0">
        <route edges="53268712#0 53330868"/>
    </vehicle>
    <vehicle id="carIn4:1" type="default" depart="30424" departPos="0.00" arrivalPos="1021.28" departSpeed="0" arrivalSpeed="0" color="1,0,0">
        <route edges="53268712#0 53330868"/>
    </vehicle>
    <vehicle id="carIn18:1" type="default" depart="30426" departPos="0.00" arrivalPos="411.50" departSpeed="0" arrivalSpeed="0" color="1,0,0">
        <route edges="-53268712#3 53330868"/>
    </vehicle>
    <vehicle id="carIn47:1" type="default" depart="30438" departPos="0.00" arrivalPos="373.30" departSpeed="0" arrivalSpeed="0" color="1,0,0">
        <route edges="-53268712#3 53330868"/>
    </vehicle>
    <vehicle id="carIn59:1" type="default" depart="30438" departPos="0.00" arrivalPos="967.52" departSpeed="0" arrivalSpeed="0" color="1,0,0">
        <route edges="-53268712#3 53330868"/>
    </vehicle>
    <vehicle id="h61c1:1" type="default" depart="30446" departPos="235.20" arrivalPos="905.36" departSpeed="0" arrivalSpeed="0" color="1,0,0">
        <route edges="-53631335#3 -53330868"/>
    </vehicle>
    <vehicle id="carIn89:1" type="default" depart="30447" departPos="0.00" arrivalPos="1029.59" departSpeed="0" arrivalSpeed="0" color="1,0,0">
        <route edges="53268712#0 -53330868"/>
    </vehicle>
    <vehicle id="h5c1:1" type="default" depart="30450" departPos="35.90" arrivalPos="406.04" departSpeed="0" arrivalSpeed="0" color="1,0,0">
        <route edges="-84810593 53330868"/>
    </vehicle>
    <vehicle id="carIn85:1" type="default" depart="30460" departPos="0.00" arrivalPos="992.95" departSpeed="0" arrivalSpeed="0" color="1,0,0">
        <route edges="-53268712#3 53330868"/>
    </vehicle>
    <vehicle id="carIn24:1" type="default" depart="30464" departPos="0.00" arrivalPos="786.50" departSpeed="0" arrivalSpeed="0" color="1,0,0">
        <route edges="53268712#0 53330868"/>
    </vehicle>
    <vehicle id="carIn69:1" type="default" depart="30464" departPos="0.00" arrivalPos="378.16" departSpeed="0" arrivalSpeed="0" color="1,0,0">
        <route edges="53268712#0 -53330868"/>
    </vehicle>
    <vehicle id="carIn40:1" type="default" depart="30500" departPos="0.00" arrivalPos="197.22" departSpeed="0" arrivalSpeed="0" color="1,0,0">
        <route edges="-53268712#3 -53330868"/>
    </vehicle>
    <vehicle id="randUni130:1" type="random" depart="30509" departPos="70.44" arrivalPos="106.04" departSpeed="0" arrivalSpeed="0" color="0,0,1">
        <route edges="-71028858 -84810593"/>
    </vehicle>
    <vehicle id="carIn13:1" type="default" depart="30542" departPos="0.00" arrivalPos="728.29" departSpeed="0" arrivalSpeed="0" color="1,0,0">
        <route edges="-53268712#3 53330868"/>
    </vehicle>
    <vehicle id="carIn76:1" type="default" depart="30621" departPos="0.00" arrivalPos="480.87" departSpeed="0" arrivalSpeed="0" color="1,0,0">
        <route edges="53268712#0 -53330868"/>
    </vehicle>
    <vehicle id="carIn98:1" type="default" depart="30640" departPos="0.00" arrivalPos="550.14" departSpeed="0" arrivalSpeed="0" color="1,0,0">
        <route edges="-53268712#3 53330868"/>
    </vehicle>
    <vehicle id="randUni94:1" type="random" depart="30877" departPos="2.82" arrivalPos="338.03" departSpeed="0" arrivalSpeed="0" color="0,0,1">
        <route edges="-71143715#0 53268712#3"/>
    </vehicle>
    <vehicle id="bl601b1:3" type="bus" depart="31200" departPos="324.00" arrivalPos="456.00" departSpeed="0" arrivalSpeed="0" color="0,1,0">
        <route edges="-53631335#1 -53631335#0"/>
    </vehicle>
    <vehicle id="bl601b2:15" type="bus" depart="31200" departPos="456.00" arrivalPos="324.00" departSpeed="0" arrivalSpeed="0" color="0,1,0">
        <route edges="-53631335#0 -53631335#1"/>
    </vehicle>
    <vehicle id="carIn58:1" type="default" depart="31877" departPos="0.00" arrivalPos="96.71" departSpeed="0" arrivalSpeed="0" color="1,0,0">
        <route edges="-53268712#3 -71143715#2"/>
    </vehicle>
    <vehicle id="carIn64:1" type="default" depart="31894" departPos="0.00" arrivalPos="896.57" departSpeed="0" arrivalSpeed="0" color="1,0,0">
        <route edges="-53268712#3 -53330868"/>
    </vehicle>
    <vehicle id="carIn10:1" type="default" depart="31902" departPos="0.00" arrivalPos="954.81" departSpeed="0" arrivalSpeed="0" color="1,0,0">
        <route edges="-53268712#3 -53330868"/>
    </vehicle>
    <vehicle id="carIn33:1" type="default" depart="31948" departPos="0.00" arrivalPos="714.94" departSpeed="0" arrivalSpeed="0" color="1,0,0">
        <route edges="53268712#0 53330868"/>
    </vehicle>
    <vehicle id="h69c1:1" type="default" depart="31953" departPos="106.73" arrivalPos="170.98" departSpeed="0" arrivalSpeed="0" color="1,0,0">
        <route edges="-53631335#3 53330868"/>
    </vehicle>
    <vehicle id="h7c1:1" type="default" depart="32009" departPos="121.32" arrivalPos="59.43" departSpeed="0" arrivalSpeed="0" color="1,0,0">
        <route edges="-84810593 53330868"/>
    </vehicle>
    <vehicle id="h6c1:1" type="default" depart="32015" departPos="71.72" arrivalPos="96.99" departSpeed="0" arrivalSpeed="0" color="1,0,0">
        <route edges="-84810593 71143715#2"/>
    </vehicle>
    <vehicle id="h20c1:1" type="default" depart="32023" departPos="64.01" arrivalPos="1016.02" departSpeed="0" arrivalSpeed="0" color="1,0,0">
        <route edges="-84810593 -53330868"/>
    </vehicle>
    <vehicle id="carIn15:1" type="default" depart="32028" departPos="0.00" arrivalPos="51.26" departSpeed="0" arrivalSpeed="0" color="1,0,0">
        <route edges="-53268712#3 -71143715#2"/>
    </vehicle>
    <vehicle id="carIn49:1" type="default" depart="32035" departPos="0.00" arrivalPos="621.99" departSpeed="0" arrivalSpeed="0" color="1,0,0">
        <route edges="53268712#0 -53330868"/>
    </vehicle>
    <vehicle id="carIn66:1" type="default" depart="32037" departPos="0.00" arrivalPos="541.71" departSpeed="0" arrivalSpeed="0" color="1,0,0">
        <route edges="-53268712#3 -53330868"/>
    </vehicle>
    <vehicle id="carIn74:1" type="default" depart="32044" departPos="0.00" arrivalPos="929.98" departSpeed="0" arrivalSpeed="0" color="1,0,0">
        <route edges="-53268712#3 -53330868"/>
    </vehicle>
    <vehicle id="carIn28:1" type="default" depart="32052" departPos="0.00" arrivalPos="23.02" departSpeed="0" arrivalSpeed="0" color="1,0,0">
        <route edges="-53268712#3 53330868"/>
    </vehicle>
    <vehicle id="carIn26:1" type="default" depart="32056" departPos="0.00" arrivalPos="66.91" departSpeed="0" arrivalSpeed="0" color="1,0,0">
        <route edges="-53268712#3 53330868"/>
    </vehicle>
    <vehicle id="carIn39:1" type="default" depart="32061" departPos="0.00" arrivalPos="824.40" departSpeed="0" arrivalSpeed="0" color="1,0,0">
        <route edges="-53268712#3 -53330868"/>
    </vehicle>
    <vehicle id="carIn16:1" type="default" depart="32065" departPos="0.00" arrivalPos="241.04" departSpeed="0" arrivalSpeed="0" color="1,0,0">
        <route edges="53268712#0 -53330868"/>
    </vehicle>
    <vehicle id="carIn93:1" type="default" depart="32069" departPos="0.00" arrivalPos="896.90" departSpeed="0" arrivalSpeed="0" color="1,0,0">
        <route edges="-53268712#3 -53330868"/>
    </vehicle>
    <vehicle id="carIn35:1" type="default" depart="32070" departPos="0.00" arrivalPos="285.41" departSpeed="0" arrivalSpeed="0" color="1,0,0">
        <route edges="53268712#0 -53330868"/>
    </vehicle>
    <vehicle id="carIn44:1" type="default" depart="32078" departPos="0.00" arrivalPos="320.16" departSpeed="0" arrivalSpeed="0" color="1,0,0">
        <route edges="53268712#0 53330868"/>
    </vehicle>
    <vehicle id="carIn83:1" type="default" depart="32080" departPos="0.00" arrivalPos="937.82" departSpeed="0" arrivalSpeed="0" color="1,0,0">
        <route edges="-53268712#3 53330868"/>
    </vehicle>
    <vehicle id="carIn22:1" type="default" depart="32091" departPos="0.00" arrivalPos="592.30" departSpeed="0" arrivalSpeed="0" color="1,0,0">
        <route edges="53268712#0 53330868"/>
    </vehicle>
    <vehicle id="carIn3:1" type="default" depart="32093" departPos="0.00" arrivalPos="100.01" departSpeed="0" arrivalSpeed="0" color="1,0,0">
        <route edges="53268712#0 -53330868"/>
    </vehicle>
    <vehicle id="carIn50:1" type="default" depart="32099" departPos="0.00" arrivalPos="822.58" departSpeed="0" arrivalSpeed="0" color="1,0,0">
        <route edges="-53268712#3 -53330868"/>
    </vehicle>
    <vehicle id="h98c1:1" type="default" depart="32103" departPos="4.23" arrivalPos="653.40" departSpeed="0" arrivalSpeed="0" color="1,0,0">
        <route edges="-71028858 -53330868"/>
    </vehicle>
    <vehicle id="carIn94:1" type="default" depart="32117" departPos="0.00" arrivalPos="762.98" departSpeed="0" arrivalSpeed="0" color="1,0,0">
        <route edges="-53268712#3 -53330868"/>
    </vehicle>
    <vehicle id="h42c1:1" type="default" depart="32125" departPos="132.04" arrivalPos="270.76" departSpeed="0" arrivalSpeed="0" color="1,0,0">
        <route edges="-53631335#3 -53330868"/>
    </vehicle>
    <vehicle id="carIn96:1" type="default" depart="32128" departPos="0.00" arrivalPos="22.22" departSpeed="0" arrivalSpeed="0" color="1,0,0">
        <route edges="-53268712#3 -53330868"/>
    </vehicle>
    <vehicle id="carIn51:1" type="default" depart="32129" departPos="0.00" arrivalPos="296.51" departSpeed="0" arrivalSpeed="0" color="1,0,0">
        <route edges="-53268712#3 53330868"/>
    </vehicle>
    <vehicle id="carIn41:1" type="default" depart="32131" departPos="0.00" arrivalPos="102.28" departSpeed="0" arrivalSpeed="0" color="1,0,0">
        <route edges="53268712#0 71143715#2"/>
    </vehicle>
    <vehicle id="carIn5:1" type="default" depart="32133" departPos="0.00" arrivalPos="1029.75" departSpeed="0" arrivalSpeed="0" color="1,0,0">
        <route edges="53268712#0 53330868"/>
    </vehicle>
    <vehicle id="carIn12:1" type="default" depart="32136" departPos="0.00" arrivalPos="521.43" departSpeed="0" arrivalSpeed="0" color="1,0,0">
        <route edges="-53268712#3 53330868"/>
    </vehicle>
    <vehicle id="carIn75:1" type="default" depart="32140" departPos="0.00" arrivalPos="733.64" departSpeed="0" arrivalSpeed="0" color="1,0,0">
        <route edges="-53268712#3 53330868"/>
    </vehicle>
    <vehicle id="carIn31:1" type="default" depart="32142" departPos="0.00" arrivalPos="146.09" departSpeed="0" arrivalSpeed="0" color="1,0,0">
        <route edges="53268712#0 -53330868"/>
    </vehicle>
    <vehicle id="carIn36:1" type="default" depart="32143" departPos="0.00" arrivalPos="761.19" departSpeed="0" arrivalSpeed="0" color="1,0,0">
        <route edges="53268712#0 53330868"/>
    </vehicle>
    <vehicle id="carIn9:1" type="default" depart="32147" departPos="0.00" arrivalPos="733.66" departSpeed="0" arrivalSpeed="0" color="1,0,0">
        <route edges="53268712#0 53330868"/>
    </vehicle>
    <vehicle id="carIn87:1" type="default" depart="32147" departPos="0.00" arrivalPos="193.29" departSpeed="0" arrivalSpeed="0" color="1,0,0">
        <route edges="-53268712#3 53330868"/>
    </vehicle>
    <vehicle id="h54c1:1" type="default" depart="32148" departPos="23.71" arrivalPos="714.99" departSpeed="0" arrivalSpeed="0" color="1,0,0">
        <route edges="-53631335#3 -53330868"/>
    </vehicle>
    <vehicle id="carIn19:1" type="default" depart="32148" departPos="0.00" arrivalPos="926.92" departSpeed="0" arrivalSpeed="0" color="1,0,0">
        <route edges="53268712#0 -53330868"/>
    </vehicle>
    <vehicle id="carIn8:1" type="default" depart="32149" departPos="0.00" arrivalPos="193.55" departSpeed="0" arrivalSpeed="0" color="1,0,0">
        <route edges="53268712#0 53330868"/>
    </vehicle>
    <vehicle id="carIn82:1" type="default" depart="32156" departPos="0.00" arrivalPos="113.54" departSpeed="0" arrivalSpeed="0" color="1,0,0">
        <route edges="53268712#0 53330868"/>
    </vehicle>
    <vehicle id="h46c1:1" type="default" depart="32158" departPos="2.21" arrivalPos="614.50" departSpeed="0" arrivalSpeed="0" color="1,0,0">
        <route edges="-53631335#3 53330868"/>
    </vehicle>
    <vehicle id="h38c1:1" type="default" depart="32165" departPos="2.24" arrivalPos="548.77" departSpeed="0" arrivalSpeed="0" color="1,0,0">
        <route edges="-53631335#3 -53330868"/>
    </vehicle>
    <vehicle id="h41c1:1" type="default" depart="32169" departPos="246.22" arrivalPos="410.75" departSpeed="0" arrivalSpeed="0" color="1,0,0">
        <route edges="-53631335#3 -53330868"/>
    </vehicle>
    <vehicle id="h60c1:1" type="default" depart="32174" departPos="71.14" arrivalPos="729.43" departSpeed="0" arrivalSpeed="0" color="1,0,0">
        <route edges="-53631335#3 -53330868"/>
    </vehicle>
    <vehicle id="carIn78:1" type="default" depart="32174" departPos="0.00" arrivalPos="665.78" departSpeed="0" arrivalSpeed="0" color="1,0,0">
        <route edges="53268712#0 -53330868"/>
    </vehicle>
    <vehicle id="carIn2:1" type="default" depart="32177" departPos="0.00" arrivalPos="102.98" departSpeed="0" arrivalSpeed="0" color="1,0,0">
        <route edges="53268712#0 -71143715#2"/>
    </vehicle>
    <vehicle id="h16c1:1" type="default" depart="32180" departPos="130.75" arrivalPos="329.17" departSpeed="0" arrivalSpeed="0" color="1,0,0">
        <route edges="-84810593 -53330868"/>
    </vehicle>
    <vehicle id="carIn17:1" type="default" depart="32181" departPos="0.00" arrivalPos="88.09" departSpeed="0" arrivalSpeed="0" color="1,0,0">
        <route edges="-53268712#3 71143715#2"/>
    </vehicle>
    <vehicle id="carIn21:1" type="default" depart="32181" departPos="0.00" arrivalPos="916.34" departSpeed="0" arrivalSpeed="0" color="1,0,0">
        <route edges="53268712#0 -53330868"/>
    </vehicle>