<?xml version="1.0" encoding="UTF-8"?>

<!-- generated on 10/25/14 20:05:54 by SUMO activitygen Version 0.21.0
<?xml version="1.0" encoding="UTF-8"?>

<configuration xmlns:xsi="http://www.w3.org/2001/XMLSchema-instance" xsi:noNamespaceSchemaLocation="http://sumo-sim.org/xsd/activitygenConfiguration.xsd">

    <input>
        <net-file value="..\map1.net.xml"/>
        <stat-file value="..\map1.stat.xml"/>
    </input>

    <output>
        <output-file value="..\map1.rou.xml"/>
    </output>

    <time>
        <duration-d value="1"/>
    </time>

    <random_number>
        <random value="true"/>
    </random_number>

</configuration>
-->

<routes xmlns:xsi="http://www.w3.org/2001/XMLSchema-instance" xsi:noNamespaceSchemaLocation="http://sumo-sim.org/xsd/routes_file.xsd">
	
	<vType id="car" accel="4.0" decel="8.0" sigma="0.0" length="5" minGap="2.5" maxSpeed="90"/>

	<vehicle id="v0" type="car" depart="0" departPos="0" arrivalPos="0.0" departSpeed="0" arrivalSpeed="0">
		<route edges="e0 e0"/>
	</vehicle>
	<vehicle id="v0" type="car" depart="0" departPos="10" arrivalPos="0.0" departSpeed="0" arrivalSpeed="0">
		<route edges="e0 e0"/>
	</vehicle>
<!--
	<vehicle id="v0" type="car" depart="0" departPos="20" arrivalPos="0.0" departSpeed="0" arrivalSpeed="0">
		<route edges="e0 e0"/>
	</vehicle>
	<vehicle id="v0" type="car" depart="0" departPos="30" arrivalPos="0.0" departSpeed="0" arrivalSpeed="0">
		<route edges="e0 e0"/>
	</vehicle>
	<vehicle id="v0" type="car" depart="0" departPos="40" arrivalPos="0.0" departSpeed="0" arrivalSpeed="0">
		<route edges="e0 e0"/>
	</vehicle>
	<vehicle id="v0" type="car" depart="0" departPos="50" arrivalPos="0.0" departSpeed="0" arrivalSpeed="0">
		<route edges="e0 e0"/>
	</vehicle>
	<vehicle id="v0" type="car" depart="0" departPos="60" arrivalPos="0.0" departSpeed="0" arrivalSpeed="0">
		<route edges="e0 e0"/>
	</vehicle>
	<vehicle id="v0" type="car" depart="0" departPos="70" arrivalPos="0.0" departSpeed="0" arrivalSpeed="0">
		<route edges="e0 e0"/>
	</vehicle>
	<vehicle id="v0" type="car" depart="0" departPos="80" arrivalPos="0.0" departSpeed="0" arrivalSpeed="0">
		<route edges="e0 e0"/>
	</vehicle>
	<vehicle id="v0" type="car" depart="0" departPos="90" arrivalPos="0.0" departSpeed="0" arrivalSpeed="0">
		<route edges="e0 e0"/>
	
	-->
</routes>
