<?xml version="1.0" encoding="UTF-8"?>

<!-- generated on 10/25/14 20:19:04 by SUMO activitygen Version 0.21.0
<?xml version="1.0" encoding="UTF-8"?>

<configuration xmlns:xsi="http://www.w3.org/2001/XMLSchema-instance" xsi:noNamespaceSchemaLocation="http://sumo-sim.org/xsd/activitygenConfiguration.xsd">

    <input>
        <net-file value="..\multilane.net.xml"/>
        <stat-file value="..\multilane.stat.xml"/>
    </input>

    <output>
        <output-file value="..\multilane.rou.xml"/>
    </output>

    <time>
        <duration-d value="1"/>
    </time>

    <random_number>
        <random value="true"/>
    </random_number>

</configuration>
-->

<routes xmlns:xsi="http://www.w3.org/2001/XMLSchema-instance" xsi:noNamespaceSchemaLocation="http://sumo-sim.org/xsd/routes_file.xsd">
    <vType id="default" accel="4.0" decel="8.0" sigma="0.0" length="5" minGap="2.5" maxSpeed="90"/>
    <vType id="random" accel="4.0" decel="8.0" sigma="0.0" length="5" minGap="2.5" maxSpeed="90"/>
    <vType id="bus" accel="2.0" decel="4.0" sigma="0.0" length="10" minGap="3" maxSpeed="70"/>

    <vehicle id="randUni47:1" type="random" depart="677" departPos="137.37" arrivalPos="138.78" departSpeed="0" arrivalSpeed="0" color="0,0,1">
        <route edges="-13 -11"/>
    </vehicle>
    <vehicle id="randUni20:1" type="random" depart="2689" departPos="193.81" arrivalPos="39.54" departSpeed="0" arrivalSpeed="0" color="0,0,1">
        <route edges="3 3"/>
    </vehicle>
    <vehicle id="randUni90:1" type="random" depart="3167" departPos="180.93" arrivalPos="164.95" departSpeed="0" arrivalSpeed="0" color="0,0,1">
        <route edges="-3 13"/>
    </vehicle>
    <vehicle id="randUni97:1" type="random" depart="4832" departPos="119.43" arrivalPos="79.76" departSpeed="0" arrivalSpeed="0" color="0,0,1">
        <route edges="11 3"/>
    </vehicle>
    <vehicle id="randUni106:1" type="random" depart="13019" departPos="51.55" arrivalPos="23.85" departSpeed="0" arrivalSpeed="0" color="0,0,1">
        <route edges="-3 -13"/>
    </vehicle>
    <vehicle id="randUni96:1" type="random" depart="13050" departPos="189.68" arrivalPos="29.46" departSpeed="0" arrivalSpeed="0" color="0,0,1">
        <route edges="13 3"/>
    </vehicle>
    <vehicle id="randUni12:1" type="random" depart="14082" departPos="76.93" arrivalPos="52.45" departSpeed="0" arrivalSpeed="0" color="0,0,1">
        <route edges="-3 -13"/>
    </vehicle>
    <vehicle id="randUni24:1" type="random" depart="19971" departPos="67.64" arrivalPos="157.12" departSpeed="0" arrivalSpeed="0" color="0,0,1">
        <route edges="3 13"/>
    </vehicle>
    <vehicle id="randUni53:1" type="random" depart="19990" departPos="16.19" arrivalPos="29.39" departSpeed="0" arrivalSpeed="0" color="0,0,1">
        <route edges="-13 3"/>
    </vehicle>
    <vehicle id="randUni112:1" type="random" depart="20560" departPos="95.25" arrivalPos="75.54" departSpeed="0" arrivalSpeed="0" color="0,0,1">
        <route edges="13 -3"/>
    </vehicle>
    <vehicle id="randUni68:1" type="random" depart="21618" departPos="45.83" arrivalPos="75.78" departSpeed="0" arrivalSpeed="0" color="0,0,1">
        <route edges="-3 11"/>
    </vehicle>
    <vehicle id="randUni21:1" type="random" depart="23298" departPos="62.66" arrivalPos="94.57" departSpeed="0" arrivalSpeed="0" color="0,0,1">
        <route edges="-3 3"/>
    </vehicle>
    <vehicle id="randUni50:1" type="random" depart="23580" departPos="46.57" arrivalPos="108.08" departSpeed="0" arrivalSpeed="0" color="0,0,1">
        <route edges="-3 13"/>
    </vehicle>
    <vehicle id="randUni5:1" type="random" depart="23622" departPos="114.01" arrivalPos="149.57" departSpeed="0" arrivalSpeed="0" color="0,0,1">
        <route edges="13 11"/>
    </vehicle>
    <vehicle id="randUni36:1" type="random" depart="24409" departPos="166.81" arrivalPos="72.42" departSpeed="0" arrivalSpeed="0" color="0,0,1">
        <route edges="-3 -3"/>
    </vehicle>
    <vehicle id="randUni38:1" type="random" depart="27471" departPos="154.38" arrivalPos="174.86" departSpeed="0" arrivalSpeed="0" color="0,0,1">
        <route edges="-11 -11"/>
    </vehicle>
    <vehicle id="randUni32:1" type="random" depart="27544" departPos="140.43" arrivalPos="190.13" departSpeed="0" arrivalSpeed="0" color="0,0,1">
        <route edges="-11 -3"/>
    </vehicle>
    <vehicle id="randUni39:1" type="random" depart="28099" departPos="100.99" arrivalPos="70.80" departSpeed="0" arrivalSpeed="0" color="0,0,1">
        <route edges="-13 -3"/>
    </vehicle>
    <vehicle id="randUni37:1" type="random" depart="28267" departPos="123.28" arrivalPos="74.49" departSpeed="0" arrivalSpeed="0" color="0,0,1">
        <route edges="-3 11"/>
    </vehicle>
    <vehicle id="randUni105:1" type="random" depart="28880" departPos="54.29" arrivalPos="54.84" departSpeed="0" arrivalSpeed="0" color="0,0,1">
        <route edges="-11 -3"/>
    </vehicle>
    <vehicle id="carIn24:1" type="default" depart="30300" departPos="0.00" arrivalPos="197.39" departSpeed="0" arrivalSpeed="0" color="1,0,0">
        <route edges="-3 11"/>
    </vehicle>
    <vehicle id="carIn55:1" type="default" depart="30319" departPos="0.00" arrivalPos="54.47" departSpeed="0" arrivalSpeed="0" color="1,0,0">
        <route edges="-3 3"/>
    </vehicle>
    <vehicle id="carIn76:1" type="default" depart="30352" departPos="0.00" arrivalPos="170.72" departSpeed="0" arrivalSpeed="0" color="1,0,0">
        <route edges="-3 11"/>
    </vehicle>
    <vehicle id="carIn10:1" type="default" depart="30361" departPos="0.00" arrivalPos="10.65" departSpeed="0" arrivalSpeed="0" color="1,0,0">
        <route edges="11 3"/>
    </vehicle>
    <vehicle id="carIn61:1" type="default" depart="30366" departPos="0.00" arrivalPos="49.23" departSpeed="0" arrivalSpeed="0" color="1,0,0">
        <route edges="-3 3"/>
    </vehicle>
    <vehicle id="carIn14:1" type="default" depart="30368" departPos="0.00" arrivalPos="179.10" departSpeed="0" arrivalSpeed="0" color="1,0,0">
        <route edges="-3 -3"/>
    </vehicle>
    <vehicle id="carIn87:1" type="default" depart="30407" departPos="0.00" arrivalPos="144.08" departSpeed="0" arrivalSpeed="0" color="1,0,0">
        <route edges="11 11"/>
    </vehicle>
    <vehicle id="carIn72:1" type="default" depart="30421" departPos="0.00" arrivalPos="7.04" departSpeed="0" arrivalSpeed="0" color="1,0,0">
        <route edges="11 11"/>
    </vehicle>
    <vehicle id="carIn8:1" type="default" depart="30445" departPos="0.00" arrivalPos="87.77" departSpeed="0" arrivalSpeed="0" color="1,0,0">
        <route edges="11 3"/>
    </vehicle>
    <vehicle id="carIn43:1" type="default" depart="30454" departPos="0.00" arrivalPos="143.57" departSpeed="0" arrivalSpeed="0" color="1,0,0">
        <route edges="11 -3"/>
    </vehicle>
    <vehicle id="carIn9:1" type="default" depart="30459" departPos="0.00" arrivalPos="86.19" departSpeed="0" arrivalSpeed="0" color="1,0,0">
        <route edges="-3 11"/>
    </vehicle>
    <vehicle id="carIn65:1" type="default" depart="30478" departPos="0.00" arrivalPos="0.70" departSpeed="0" arrivalSpeed="0" color="1,0,0">
        <route edges="-3 3"/>
    </vehicle>
    <vehicle id="carIn31:1" type="default" depart="30487" departPos="0.00" arrivalPos="10.09" departSpeed="0" arrivalSpeed="0" color="1,0,0">
        <route edges="11 3"/>
    </vehicle>
    <vehicle id="carIn25:1" type="default" depart="30490" departPos="0.00" arrivalPos="64.61" departSpeed="0" arrivalSpeed="0" color="1,0,0">
        <route edges="11 3"/>
    </vehicle>
    <vehicle id="carIn59:1" type="default" depart="30499" departPos="0.00" arrivalPos="133.85" departSpeed="0" arrivalSpeed="0" color="1,0,0">
        <route edges="-3 -3"/>
    </vehicle>
    <vehicle id="carIn78:1" type="default" depart="30500" departPos="0.00" arrivalPos="60.37" departSpeed="0" arrivalSpeed="0" color="1,0,0">
        <route edges="-3 3"/>
    </vehicle>
    <vehicle id="carIn48:1" type="default" depart="30510" departPos="0.00" arrivalPos="36.16" departSpeed="0" arrivalSpeed="0" color="1,0,0">
        <route edges="11 3"/>
    </vehicle>
    <vehicle id="carIn34:1" type="default" depart="30521" departPos="0.00" arrivalPos="106.30" departSpeed="0" arrivalSpeed="0" color="1,0,0">
        <route edges="11 11"/>
    </vehicle>
    <vehicle id="carIn85:1" type="default" depart="30524" departPos="0.00" arrivalPos="199.82" departSpeed="0" arrivalSpeed="0" color="1,0,0">
        <route edges="-3 11"/>
    </vehicle>
    <vehicle id="carIn91:1" type="default" depart="30541" departPos="0.00" arrivalPos="54.33" departSpeed="0" arrivalSpeed="0" color="1,0,0">
        <route edges="11 3"/>
    </vehicle>
    <vehicle id="carIn57:1" type="default" depart="30548" departPos="0.00" arrivalPos="146.91" departSpeed="0" arrivalSpeed="0" color="1,0,0">
        <route edges="11 3"/>
    </vehicle>
    <vehicle id="carIn95:1" type="default" depart="30555" departPos="0.00" arrivalPos="12.69" departSpeed="0" arrivalSpeed="0" color="1,0,0">
        <route edges="11 11"/>
    </vehicle>
    <vehicle id="carIn40:1" type="default" depart="30558" departPos="0.00" arrivalPos="28.90" departSpeed="0" arrivalSpeed="0" color="1,0,0">
        <route edges="-3 3"/>
    </vehicle>
    <vehicle id="carIn33:1" type="default" depart="30591" departPos="0.00" arrivalPos="145.69" departSpeed="0" arrivalSpeed="0" color="1,0,0">
        <route edges="11 -3"/>
    </vehicle>
    <vehicle id="carIn47:1" type="default" depart="30602" departPos="0.00" arrivalPos="130.51" departSpeed="0" arrivalSpeed="0" color="1,0,0">
        <route edges="-3 3"/>
    </vehicle>
    <vehicle id="carIn90:1" type="default" depart="30603" departPos="0.00" arrivalPos="87.98" departSpeed="0" arrivalSpeed="0" color="1,0,0">
        <route edges="-3 11"/>
    </vehicle>
    <vehicle id="carIn39:1" type="default" depart="30619" departPos="0.00" arrivalPos="194.36" departSpeed="0" arrivalSpeed="0" color="1,0,0">
        <route edges="11 3"/>
    </vehicle>
    <vehicle id="carIn96:1" type="default" depart="30625" departPos="0.00" arrivalPos="44.55" departSpeed="0" arrivalSpeed="0" color="1,0,0">
        <route edges="11 3"/>
    </vehicle>
    <vehicle id="carIn6:1" type="default" depart="30643" departPos="0.00" arrivalPos="25.35" departSpeed="0" arrivalSpeed="0" color="1,0,0">
        <route edges="11 3"/>
    </vehicle>
    <vehicle id="carIn75:1" type="default" depart="30644" departPos="0.00" arrivalPos="125.40" departSpeed="0" arrivalSpeed="0" color="1,0,0">
        <route edges="-3 3"/>
    </vehicle>
    <vehicle id="carIn20:1" type="default" depart="30659" departPos="0.00" arrivalPos="36.76" departSpeed="0" arrivalSpeed="0" color="1,0,0">
        <route edges="11 3"/>
    </vehicle>
    <vehicle id="carIn36:1" type="default" depart="30665" departPos="0.00" arrivalPos="126.17" departSpeed="0" arrivalSpeed="0" color="1,0,0">
        <route edges="11 -3"/>
    </vehicle>
    <vehicle id="carIn70:1" type="default" depart="30666" departPos="0.00" arrivalPos="10.52" departSpeed="0" arrivalSpeed="0" color="1,0,0">
        <route edges="11 3"/>
    </vehicle>
    <vehicle id="carIn82:1" type="default" depart="30671" departPos="0.00" arrivalPos="60.87" departSpeed="0" arrivalSpeed="0" color="1,0,0">
        <route edges="-3 11"/>
    </vehicle>
    <vehicle id="carIn69:1" type="default" depart="30694" departPos="0.00" arrivalPos="165.76" departSpeed="0" arrivalSpeed="0" color="1,0,0">
        <route edges="11 11"/>
    </vehicle>
    <vehicle id="carIn44:1" type="default" depart="30699" departPos="0.00" arrivalPos="32.15" departSpeed="0" arrivalSpeed="0" color="1,0,0">
        <route edges="-3 3"/>
    </vehicle>
    <vehicle id="carIn1:1" type="default" depart="30713" departPos="0.00" arrivalPos="136.28" departSpeed="0" arrivalSpeed="0" color="1,0,0">
        <route edges="11 11"/>
    </vehicle>
    <vehicle id="carIn66:1" type="default" depart="30726" departPos="0.00" arrivalPos="18.52" departSpeed="0" arrivalSpeed="0" color="1,0,0">
        <route edges="11 3"/>
    </vehicle>
    <vehicle id="carIn3:1" type="default" depart="30781" departPos="0.00" arrivalPos="33.58" departSpeed="0" arrivalSpeed="0" color="1,0,0">
        <route edges="11 3"/>
    </vehicle>
    <vehicle id="carIn68:1" type="default" depart="30823" departPos="0.00" arrivalPos="188.76" departSpeed="0" arrivalSpeed="0" color="1,0,0">
        <route edges="-3 3"/>
    </vehicle>
    <vehicle id="randUni45:1" type="random" depart="31014" departPos="38.08" arrivalPos="191.73" departSpeed="0" arrivalSpeed="0" color="0,0,1">
        <route edges="-13 11"/>
    </vehicle>
    <vehicle id="carIn19:1" type="default" depart="32052" departPos="0.00" arrivalPos="133.62" departSpeed="0" arrivalSpeed="0" color="1,0,0">
        <route edges="11 3"/>
    </vehicle>
    <vehicle id="carIn51:1" type="default" depart="32085" departPos="0.00" arrivalPos="188.40" departSpeed="0" arrivalSpeed="0" color="1,0,0">
        <route edges="11 3"/>
    </vehicle>
    <vehicle id="carIn54:1" type="default" depart="32095" departPos="0.00" arrivalPos="138.86" departSpeed="0" arrivalSpeed="0" color="1,0,0">
        <route edges="-3 3"/>
    </vehicle>
    <vehicle id="carIn58:1" type="default" depart="32122" departPos="0.00" arrivalPos="42.03" departSpeed="0" arrivalSpeed="0" color="1,0,0">
        <route edges="-3 3"/>
    </vehicle>
    <vehicle id="carIn35:1" type="default" depart="32133" departPos="0.00" arrivalPos="115.22" departSpeed="0" arrivalSpeed="0" color="1,0,0">
        <route edges="-3 -3"/>
    </vehicle>
    <vehicle id="carIn60:1" type="default" depart="32138" departPos="0.00" arrivalPos="195.44" departSpeed="0" arrivalSpeed="0" color="1,0,0">
        <route edges="-3 -3"/>
    </vehicle>
    <vehicle id="carIn86:1" type="default" depart="32145" departPos="0.00" arrivalPos="191.79" departSpeed="0" arrivalSpeed="0" color="1,0,0">
        <route edges="-3 11"/>
    </vehicle>
    <vehicle id="carIn67:1" type="default" depart="32169" departPos="0.00" arrivalPos="112.95" departSpeed="0" arrivalSpeed="0" color="1,0,0">
        <route edges="-3 3"/>
    </vehicle>
    <vehicle id="carIn94:1" type="default" depart="32175" departPos="0.00" arrivalPos="191.93" departSpeed="0" arrivalSpeed="0" color="1,0,0">
        <route edges="-3 11"/>
    </vehicle>
    <vehicle id="carIn21:1" type="default" depart="32181" departPos="0.00" arrivalPos="152.43" departSpeed="0" arrivalSpeed="0" color="1,0,0">
        <route edges="-3 3"/>
    </vehicle>
    <vehicle id="carIn98:1" type="default" depart="32221" departPos="0.00" arrivalPos="49.16" departSpeed="0" arrivalSpeed="0" color="1,0,0">
        <route edges="11 3"/>
    </vehicle>
    <vehicle id="carIn49:1" type="default" depart="32223" departPos="0.00" arrivalPos="139.07" departSpeed="0" arrivalSpeed="0" color="1,0,0">
        <route edges="-3 11"/>
    </vehicle>
    <vehicle id="carIn42:1" type="default" depart="32230" departPos="0.00" arrivalPos="147.11" departSpeed="0" arrivalSpeed="0" color="1,0,0">
        <route edges="11 11"/>
    </vehicle>
    <vehicle id="carIn81:1" type="default" depart="32231" departPos="0.00" arrivalPos="76.68" departSpeed="0" arrivalSpeed="0" color="1,0,0">
        <route edges="-3 3"/>
    </vehicle>
    <vehicle id="carIn37:1" type="default" depart="32233" departPos="0.00" arrivalPos="38.70" departSpeed="0" arrivalSpeed="0" color="1,0,0">
        <route edges="-3 3"/>
    </vehicle>
    <vehicle id="carIn64:1" type="default" depart="32241" departPos="0.00" arrivalPos="189.54" departSpeed="0" arrivalSpeed="0" color="1,0,0">
        <route edges="-3 3"/>
    </vehicle>
    <vehicle id="carIn17:1" type="default" depart="32250" departPos="0.00" arrivalPos="84.23" departSpeed="0" arrivalSpeed="0" color="1,0,0">
        <route edges="11 11"/>
    </vehicle>
    <vehicle id="carIn100:1" type="default" depart="32281" departPos="0.00" arrivalPos="174.05" departSpeed="0" arrivalSpeed="0" color="1,0,0">
        <route edges="11 3"/>
    </vehicle>
    <vehicle id="carIn53:1" type="default" depart="32286" departPos="0.00" arrivalPos="177.49" departSpeed="0" arrivalSpeed="0" color="1,0,0">
        <route edges="-3 11"/>
    </vehicle>
    <vehicle id="carIn29:1" type="default" depart="32295" departPos="0.00" arrivalPos="61.05" departSpeed="0" arrivalSpeed="0" color="1,0,0">
        <route edges="11 3"/>
    </vehicle>
    <vehicle id="carIn77:1" type="default" depart="32303" departPos="0.00" arrivalPos="154.06" departSpeed="0" arrivalSpeed="0" color="1,0,0">
        <route edges="-3 11"/>
    </vehicle>
    <vehicle id="carIn27:1" type="default" depart="32310" departPos="0.00" arrivalPos="43.47" departSpeed="0" arrivalSpeed="0" color="1,0,0">
        <route edges="11 3"/>
    </vehicle>
    <vehicle id="carIn62:1" type="default" depart="32313" departPos="0.00" arrivalPos="195.84" departSpeed="0" arrivalSpeed="0" color="1,0,0">
        <route edges="11 11"/>
    </vehicle>
    <vehicle id="carIn92:1" type="default" depart="32319" departPos="0.00" arrivalPos="150.58" departSpeed="0" arrivalSpeed="0" color="1,0,0">
        <route edges="11 3"/>
    </vehicle>
    <vehicle id="carIn52:1" type="default" depart="32340" departPos="0.00" arrivalPos="95.62" departSpeed="0" arrivalSpeed="0" color="1,0,0">
        <route edges="11 3"/>
    </vehicle>
    <vehicle id="carIn63:1" type="default" depart="32341" departPos="0.00" arrivalPos="13.99" departSpeed="0" arrivalSpeed="0" color="1,0,0">
        <route edges="-3 -3"/>
    </vehicle>
    <vehicle id="carIn7:1" type="default" depart="32342" departPos="0.00" arrivalPos="204.32" departSpeed="0" arrivalSpeed="0" color="1,0,0">
        <route edges="-3 11"/>
    </vehicle>
    <vehicle id="carIn84:1" type="default" depart="32346" departPos="0.00" arrivalPos="51.12" departSpeed="0" arrivalSpeed="0" color="1,0,0">
        <route edges="11 3"/>
    </vehicle>
    <vehicle id="carIn5:1" type="default" depart="32352" departPos="0.00" arrivalPos="38.01" departSpeed="0" arrivalSpeed="0" color="1,0,0">
        <route edges="-3 3"/>
    </vehicle>
    <vehicle id="carIn56:1" type="default" depart="32352" departPos="0.00" arrivalPos="135.37" departSpeed="0" arrivalSpeed="0" color="1,0,0">
        <route edges="-3 -3"/>
    </vehicle>
    <vehicle id="carIn71:1" type="default" depart="32357" departPos="0.00" arrivalPos="155.59" departSpeed="0" arrivalSpeed="0" color="1,0,0">
        <route edges="-3 3"/>
    </vehicle>
    <vehicle id="carIn16:1" type="default" depart="32367" departPos="0.00" arrivalPos="121.79" departSpeed="0" arrivalSpeed="0" color="1,0,0">
        <route edges="11 11"/>
    </vehicle>
    <vehicle id="carIn26:1" type="default" depart="32368" departPos="0.00" arrivalPos="190.92" departSpeed="0" arrivalSpeed="0" color="1,0,0">
        <route edges="-3 11"/>
    </vehicle>
    <vehicle id="carIn80:1" type="default" depart="32369" departPos="0.00" arrivalPos="168.13" departSpeed="0" arrivalSpeed="0" color="1,0,0">
        <route edges="-3 -3"/>
    </vehicle>
    <vehicle id="carIn74:1" type="default" depart="32381" departPos="0.00" arrivalPos="150.41" departSpeed="0" arrivalSpeed="0" color="1,0,0">
        <route edges="11 3"/>
    </vehicle>
    <vehicle id="carIn89:1" type="default" depart="32381" departPos="0.00" arrivalPos="99.71" departSpeed="0" arrivalSpeed="0" color="1,0,0">
        <route edges="-3 11"/>
    </vehicle>
    <vehicle id="randUni3:1" type="random" depart="32381" departPos="157.46" arrivalPos="66.42" departSpeed="0" arrivalSpeed="0" color="0,0,1">
        <route edges="13 -11"/>
    </vehicle>
    <vehicle id="carIn13:1" type="default" depart="32382" departPos="0.00" arrivalPos="50.59" departSpeed="0" arrivalSpeed="0" color="1,0,0">
        <route edges="11 3"/>
    </vehicle>
    <vehicle id="carIn73:1" type="default" depart="32392" departPos="0.00" arrivalPos="16.79" departSpeed="0" arrivalSpeed="0" color="1,0,0">
        <route edges="-3 3"/>
    </vehicle>
    <vehicle id="carIn2:1" type="default" depart="32395" departPos="0.00" arrivalPos="112.03" departSpeed="0" arrivalSpeed="0" color="1,0,0">
        <route edges="-3 3"/>
    </vehicle>
    <vehicle id="carIn28:1" type="default" depart="32411" departPos="0.00" arrivalPos="189.84" departSpeed="0" arrivalSpeed="0" color="1,0,0">
        <route edges="11 3"/>
    </vehicle>
    <vehicle id="carIn93:1" type="default" depart="32432" departPos="0.00" arrivalPos="130.48" departSpeed="0" arrivalSpeed="0" color="1,0,0">
        <route edges="-3 3"/>
    </vehicle>
    <vehicle id="carIn15:1" type="default" depart="32437" departPos="0.00" arrivalPos="58.17" departSpeed="0" arrivalSpeed="0" color="1,0,0">
        <route edges="-3 3"/>
    </vehicle>
    <vehicle id="carIn41:1" type="default" depart="32438" departPos="0.00" arrivalPos="12.30" departSpeed="0" arrivalSpeed="0" color="1,0,0">
        <route edges="-3 11"/>
    </vehicle>
    <vehicle id="carIn97:1" type="default" depart="32441" departPos="0.00" arrivalPos="196.43" departSpeed="0" arrivalSpeed="0" color="1,0,0">
        <route edges="-3 3"/>
    </vehicle>
    <vehicle id="carIn18:1" type="default" depart="32445" departPos="0.00" arrivalPos="173.03" departSpeed="0" arrivalSpeed="0" color="1,0,0">
        <route edges="11 -3"/>
    </vehicle>
    <vehicle id="carIn12:1" type="default" depart="32446" departPos="0.00" arrivalPos="34.41" departSpeed="0" arrivalSpeed="0" color="1,0,0">
        <route edges="11 -3"/>
    </vehicle>
    <vehicle id="carIn32:1" type="default" depart="32447" departPos="0.00" arrivalPos="192.02" departSpeed="0" arrivalSpeed="0" color="1,0,0">
        <route edges="-3 3"/>
    </vehicle>
    <vehicle id="carIn4:1" type="default" depart="32450" departPos="0.00" arrivalPos="41.29" departSpeed="0" arrivalSpeed="0" color="1,0,0">
        <route edges="-3 3"/>
    </vehicle>
    <vehicle id="carIn83:1" type="default" depart="32453" departPos="0.00" arrivalPos="56.28" departSpeed="0" arrivalSpeed="0" color="1,0,0">
        <route edges="11 3"/>
    </vehicle>
    <vehicle id="carIn30:1" type="default" depart="32461" departPos="0.00" arrivalPos="79.04" departSpeed="0" arrivalSpeed="0" color="1,0,0">
        <route edges="-3 3"/>
    </vehicle>
    <vehicle id="carIn38:1" type="default" depart="32470" departPos="0.00" arrivalPos="168.85" departSpeed="0" arrivalSpeed="0" color="1,0,0">
        <route edges="11 3"/>
    </vehicle>
    <vehicle id="carIn11:1" type="default" depart="32472" departPos="0.00" arrivalPos="154.47" departSpeed="0" arrivalSpeed="0" color="1,0,0">
        <route edges="11 3"/>
    </vehicle>
    <vehicle id="carIn88:1" type="default" depart="32472" departPos="0.00" arrivalPos="20.03" departSpeed="0" arrivalSpeed="0" color="1,0,0">
        <route edges="11 11"/>
    </vehicle>
    <vehicle id="carIn50:1" type="default" depart="32477" departPos="0.00" arrivalPos="74.12" departSpeed="0" arrivalSpeed="0" color="1,0,0">
        <route edges="11 11"/>
    </vehicle>
    <vehicle id="carIn45:1" type="default" depart="32484" departPos="0.00" arrivalPos="65.11" departSpeed="0" arrivalSpeed="0" color="1,0,0">
        <route edges="11 11"/>
    </vehicle>
    <vehicle id="carIn99:1" type="default" depart="32533" departPos="0.00" arrivalPos="8.05" departSpeed="0" arrivalSpeed="0" color="1,0,0">
        <route edges="11 11"/>
    </vehicle>
    <vehicle id="carIn79:1" type="default" depart="32534" departPos="0.00" arrivalPos="8.34" departSpeed="0" arrivalSpeed="0" color="1,0,0">
        <route edges="11 3"/>
    </vehicle>
    <vehicle id="carIn22:1" type="default" depart="32570" departPos="0.00" arrivalPos="108.03" departSpeed="0" arrivalSpeed="0" color="1,0,0">
        <route edges="11 3"/>
    </vehicle>
    <vehicle id="carIn46:1" type="default" depart="32587" departPos="0.00" arrivalPos="81.94" departSpeed="0" arrivalSpeed="0" color="1,0,0">
        <route edges="11 3"/>
    </vehicle>
    <vehicle id="carIn23:1" type="default" depart="32611" departPos="0.00" arrivalPos="44.00" departSpeed="0" arrivalSpeed="0" color="1,0,0">
        <route edges="-3 3"/>
    </vehicle>
    <vehicle id="randUni4:1" type="random" depart="33614" departPos="193.31" arrivalPos="0.21" departSpeed="0" arrivalSpeed="0" color="0,0,1">
        <route edges="11 -11"/>
    </vehicle>
    <vehicle id="h36c1:1" type="default" depart="37069" departPos="45.82" arrivalPos="187.00" departSpeed="0" arrivalSpeed="0" color="1,0,0">
        <route edges="11 3"/>
    </vehicle>
    <vehicle id="randUni59:1" type="random" depart="37069" departPos="99.44" arrivalPos="95.91" departSpeed="0" arrivalSpeed="0" color="0,0,1">
        <route edges="3 -3"/>
    </vehicle>
    <vehicle id="randUni103:1" type="random" depart="39707" departPos="150.25" arrivalPos="6.52" departSpeed="0" arrivalSpeed="0" color="0,0,1">
        <route edges="11 -3"/>
    </vehicle>
    <vehicle id="randUni22:1" type="random" depart="41862" departPos="20.84" arrivalPos="168.24" departSpeed="0" arrivalSpeed="0" color="0,0,1">
        <route edges="13 -13"/>
    </vehicle>
    <vehicle id="h36c1:2" type="default" depart="42500" departPos="187.00" arrivalPos="45.82" departSpeed="0" arrivalSpeed="0" color="1,0,0">
        <route edges="3 11"/>
    </vehicle>
    <vehicle id="carIn87:3" type="default" depart="42977" departPos="144.08" arrivalPos="0.00" departSpeed="0" arrivalSpeed="0" color="1,0,0">
        <route edges="11 11"/>
    </vehicle>
    <vehicle id="carIn27:3" type="default" depart="43061" departPos="43.47" arrivalPos="0.00" departSpeed="0" arrivalSpeed="0" color="1,0,0">
        <route edges="3 11"/>
    </vehicle>
    <vehicle id="carIn10:3" type="default" depart="43068" departPos="10.65" arrivalPos="0.00" departSpeed="0" arrivalSpeed="0" color="1,0,0">
        <route edges="3 11"/>
    </vehicle>
    <vehicle id="carIn21:3" type="default" depart="43090" departPos="152.43" arrivalPos="0.00" departSpeed="0" arrivalSpeed="0" color="1,0,0">
        <route edges="3 -3"/>
    </vehicle>
    <vehicle id="carIn55:3" type="default" depart="43092" departPos="54.47" arrivalPos="0.00" departSpeed="0" arrivalSpeed="0" color="1,0,0">
        <route edges="3 -3"/>
    </vehicle>
    <vehicle id="carIn61:3" type="default" depart="43097" departPos="49.23" arrivalPos="0.00" departSpeed="0" arrivalSpeed="0" color="1,0,0">
        <route edges="3 -3"/>
    </vehicle>
    <vehicle id="carIn56:3" type="default" depart="43099" departPos="135.37" arrivalPos="0.00" departSpeed="0" arrivalSpeed="0" color="1,0,0">
        <route edges="-3 -3"/>
    </vehicle>
    <vehicle id="carIn88:3" type="default" depart="43102" departPos="20.03" arrivalPos="0.00" departSpeed="0" arrivalSpeed="0" color="1,0,0">
        <route edges="11 11"/>
    </vehicle>
    <vehicle id="carIn75:3" type="default" depart="43120" departPos="125.40" arrivalPos="0.00" departSpeed="0" arrivalSpeed="0" color="1,0,0">
        <route edges="3 -3"/>
    </vehicle>
    <vehicle id="carIn86:3" type="default" depart="43125" departPos="191.79" arrivalPos="0.00" departSpeed="0" arrivalSpeed="0" color="1,0,0">
        <route edges="11 -3"/>
    </vehicle>
    <vehicle id="carIn50:3" type="default" depart="43131" departPos="74.12" arrivalPos="0.00" departSpeed="0" arrivalSpeed="0" color="1,0,0">
        <route edges="11 11"/>
    </vehicle>
    <vehicle id="carIn7:3" type="default" depart="43136" departPos="204.32" arrivalPos="0.00" departSpeed="0" arrivalSpeed="0" color="1,0,0">
        <route edges="11 -3"/>
    </vehicle>
    <vehicle id="carIn33:3" type="default" depart="43141" departPos="145.69" arrivalPos="0.00" departSpeed="0" arrivalSpeed="0" color="1,0,0">
        <route edges="-3 11"/>
    </vehicle>
    <vehicle id="carIn83:3" type="default" depart="43156" departPos="56.28" arrivalPos="0.00" departSpeed="0" arrivalSpeed="0" color="1,0,0">
        <route edges="3 11"/>
    </vehicle>
    <vehicle id="carIn45:3" type="default" depart="43161" departPos="65.11" arrivalPos="0.00" departSpeed="0" arrivalSpeed="0" color="1,0,0">
        <route edges="11 11"/>
    </vehicle>
    <vehicle id="carIn46:3" type="default" depart="43161" departPos="81.94" arrivalPos="0.00" departSpeed="0" arrivalSpeed="0" color="1,0,0">
        <route edges="3 11"/>
    </vehicle>
    <vehicle id="carIn35:3" type="default" depart="43164" departPos="115.22" arrivalPos="0.00" departSpeed="0" arrivalSpeed="0" color="1,0,0">
        <route edges="-3 -3"/>
    </vehicle>
    <vehicle id="carIn1:3" type="default" depart="43189" departPos="136.28" arrivalPos="0.00" departSpeed="0" arrivalSpeed="0" color="1,0,0">
        <route edges="11 11"/>
    </vehicle>
    <vehicle id="carIn59:3" type="default" depart="43220" departPos="133.85" arrivalPos="0.00" departSpeed="0" arrivalSpeed="0" color="1,0,0">
        <route edges="-3 -3"/>
    </vehicle>
    <vehicle id="carIn36:3" type="default" depart="43254" departPos="126.17" arrivalPos="0.00" departSpeed="0" arrivalSpeed="0" color="1,0,0">
        <route edges="-3 11"/>
    </vehicle>
    <vehicle id="carIn24:3" type="default" depart="43300" departPos="197.39" arrivalPos="0.00" departSpeed="0" arrivalSpeed="0" color="1,0,0">
        <route edges="11 -3"/>
    </vehicle>
    <vehicle id="carIn96:3" type="default" depart="43359" departPos="44.55" arrivalPos="0.00" departSpeed="0" arrivalSpeed="0" color="1,0,0">
        <route edges="3 11"/>
    </vehicle>
    <vehicle id="carIn94:3" type="default" depart="43432" departPos="191.93" arrivalPos="0.00" departSpeed="0" arrivalSpeed="0" color="1,0,0">
        <route edges="11 -3"/>
    </vehicle>
    <vehicle id="randUni31:1" type="random" depart="43629" departPos="22.83" arrivalPos="81.47" departSpeed="0" arrivalSpeed="0" color="0,0,1">
        <route edges="-11 -11"/>
    </vehicle>
    <vehicle id="randUni61:1" type="random" depart="44351" departPos="167.04" arrivalPos="206.81" departSpeed="0" arrivalSpeed="0" color="0,0,1">
        <route edges="3 -11"/>
    </vehicle>