<?xml version="1.0" encoding="UTF-8"?>

<!-- generated on 10/23/14 11:39:15 by SUMO activitygen Version 0.21.0
<?xml version="1.0" encoding="UTF-8"?>

<configuration xmlns:xsi="http://www.w3.org/2001/XMLSchema-instance" xsi:noNamespaceSchemaLocation="http://sumo-sim.org/xsd/activitygenConfiguration.xsd">

    <input>
        <net-file value="..\multilane.net.xml"/>
        <stat-file value="..\multilane.stat.xml"/>
    </input>

    <output>
        <output-file value="..\multilane.rou.xml"/>
    </output>

    <time>
        <duration-d value="1"/>
    </time>

    <random_number>
        <random value="true"/>
    </random_number>

</configuration>
-->

<routes xmlns:xsi="http://www.w3.org/2001/XMLSchema-instance" xsi:noNamespaceSchemaLocation="http://sumo-sim.org/xsd/routes_file.xsd">
    <vType id="default" accel="4.0" decel="8.0" sigma="0.0" length="5" minGap="2.5" maxSpeed="90"/>
    <vType id="random" accel="4.0" decel="8.0" sigma="0.0" length="5" minGap="2.5" maxSpeed="90"/>
    <vType id="bus" accel="2.0" decel="4.0" sigma="0.0" length="10" minGap="3" maxSpeed="70"/>

    <vehicle id="randUni52:1" type="random" depart="584" departPos="145.38" arrivalPos="142.08" departSpeed="0" arrivalSpeed="0" color="0,0,1">
        <route edges="3 13"/>
    </vehicle>
    <vehicle id="randUni49:1" type="random" depart="2601" departPos="185.40" arrivalPos="203.86" departSpeed="0" arrivalSpeed="0" color="0,0,1">
        <route edges="11 11"/>
    </vehicle>
    <vehicle id="randUni99:1" type="random" depart="6250" departPos="70.84" arrivalPos="112.96" departSpeed="0" arrivalSpeed="0" color="0,0,1">
        <route edges="-3 -3"/>
    </vehicle>
    <vehicle id="randUni0:1" type="random" depart="6366" departPos="29.17" arrivalPos="110.41" departSpeed="0" arrivalSpeed="0" color="0,0,1">
        <route edges="3 3"/>
    </vehicle>
    <vehicle id="randUni55:1" type="random" depart="7867" departPos="125.40" arrivalPos="179.58" departSpeed="0" arrivalSpeed="0" color="0,0,1">
        <route edges="11 3"/>
    </vehicle>
    <vehicle id="randUni35:1" type="random" depart="8343" departPos="146.05" arrivalPos="99.54" departSpeed="0" arrivalSpeed="0" color="0,0,1">
        <route edges="11 -3"/>
    </vehicle>
    <vehicle id="randUni98:1" type="random" depart="8791" departPos="144.58" arrivalPos="158.39" departSpeed="0" arrivalSpeed="0" color="0,0,1">
        <route edges="-3 -3"/>
    </vehicle>
    <vehicle id="randUni7:1" type="random" depart="10629" departPos="176.14" arrivalPos="188.51" departSpeed="0" arrivalSpeed="0" color="0,0,1">
        <route edges="11 13"/>
    </vehicle>
    <vehicle id="randUni40:1" type="random" depart="12931" departPos="150.96" arrivalPos="37.28" departSpeed="0" arrivalSpeed="0" color="0,0,1">
        <route edges="-3 3"/>
    </vehicle>
    <vehicle id="randUni37:1" type="random" depart="15465" departPos="138.49" arrivalPos="148.45" departSpeed="0" arrivalSpeed="0" color="0,0,1">
        <route edges="11 -3"/>
    </vehicle>
    <vehicle id="randUni6:1" type="random" depart="16323" departPos="110.48" arrivalPos="52.41" departSpeed="0" arrivalSpeed="0" color="0,0,1">
        <route edges="3 11"/>
    </vehicle>
    <vehicle id="randUni47:1" type="random" depart="18010" departPos="163.11" arrivalPos="38.06" departSpeed="0" arrivalSpeed="0" color="0,0,1">
        <route edges="3 11"/>
    </vehicle>
    <vehicle id="randUni41:1" type="random" depart="19911" departPos="39.88" arrivalPos="135.98" departSpeed="0" arrivalSpeed="0" color="0,0,1">
        <route edges="11 13"/>
    </vehicle>
    <vehicle id="randUni84:1" type="random" depart="20178" departPos="61.39" arrivalPos="143.16" departSpeed="0" arrivalSpeed="0" color="0,0,1">
        <route edges="13 13"/>
    </vehicle>
    <vehicle id="randUni23:1" type="random" depart="20406" departPos="82.74" arrivalPos="81.67" departSpeed="0" arrivalSpeed="0" color="0,0,1">
        <route edges="13 3"/>
    </vehicle>
    <vehicle id="randUni16:1" type="random" depart="20410" departPos="2.31" arrivalPos="41.79" departSpeed="0" arrivalSpeed="0" color="0,0,1">
        <route edges="13 -3"/>
    </vehicle>
    <vehicle id="randUni72:1" type="random" depart="20628" departPos="69.17" arrivalPos="72.60" departSpeed="0" arrivalSpeed="0" color="0,0,1">
        <route edges="3 -3"/>
    </vehicle>
    <vehicle id="randUni8:1" type="random" depart="23199" departPos="114.96" arrivalPos="213.14" departSpeed="0" arrivalSpeed="0" color="0,0,1">
        <route edges="-3 11"/>
    </vehicle>
    <vehicle id="randUni61:1" type="random" depart="27866" departPos="121.11" arrivalPos="8.56" departSpeed="0" arrivalSpeed="0" color="0,0,1">
        <route edges="13 13"/>
    </vehicle>
    <vehicle id="randUni48:1" type="random" depart="28426" departPos="24.28" arrivalPos="126.66" departSpeed="0" arrivalSpeed="0" color="0,0,1">
        <route edges="13 11"/>
    </vehicle>
    <vehicle id="randUni90:1" type="random" depart="29682" departPos="106.92" arrivalPos="249.45" departSpeed="0" arrivalSpeed="0" color="0,0,1">
        <route edges="-3 13"/>
    </vehicle>
    <vehicle id="carIn32:1" type="default" depart="30325" departPos="0.00" arrivalPos="160.73" departSpeed="0" arrivalSpeed="0" color="1,0,0">
        <route edges="-3 11"/>
    </vehicle>
    <vehicle id="carIn6:1" type="default" depart="30370" departPos="0.00" arrivalPos="161.74" departSpeed="0" arrivalSpeed="0" color="1,0,0">
        <route edges="-3 3"/>
    </vehicle>
    <vehicle id="randUni102:1" type="random" depart="30395" departPos="150.57" arrivalPos="42.79" departSpeed="0" arrivalSpeed="0" color="0,0,1">
        <route edges="-3 -3"/>
    </vehicle>
    <vehicle id="carIn21:1" type="default" depart="30403" departPos="0.00" arrivalPos="185.21" departSpeed="0" arrivalSpeed="0" color="1,0,0">
        <route edges="11 3"/>
    </vehicle>
    <vehicle id="carIn42:1" type="default" depart="30410" departPos="0.00" arrivalPos="131.49" departSpeed="0" arrivalSpeed="0" color="1,0,0">
        <route edges="-3 11"/>
    </vehicle>
    <vehicle id="carIn81:1" type="default" depart="30434" departPos="0.00" arrivalPos="157.08" departSpeed="0" arrivalSpeed="0" color="1,0,0">
        <route edges="11 11"/>
    </vehicle>
    <vehicle id="carIn89:1" type="default" depart="30452" departPos="0.00" arrivalPos="155.37" departSpeed="0" arrivalSpeed="0" color="1,0,0">
        <route edges="11 3"/>
    </vehicle>
    <vehicle id="carIn37:1" type="default" depart="30468" departPos="0.00" arrivalPos="201.56" departSpeed="0" arrivalSpeed="0" color="1,0,0">
        <route edges="-3 3"/>
    </vehicle>
    <vehicle id="carIn13:1" type="default" depart="30490" departPos="0.00" arrivalPos="39.97" departSpeed="0" arrivalSpeed="0" color="1,0,0">
        <route edges="11 -3"/>
    </vehicle>
    <vehicle id="carIn66:1" type="default" depart="30494" departPos="0.00" arrivalPos="55.59" departSpeed="0" arrivalSpeed="0" color="1,0,0">
        <route edges="-3 11"/>
    </vehicle>
    <vehicle id="carIn4:1" type="default" depart="30496" departPos="0.00" arrivalPos="95.87" departSpeed="0" arrivalSpeed="0" color="1,0,0">
        <route edges="-3 11"/>
    </vehicle>
    <vehicle id="carIn46:1" type="default" depart="30500" departPos="0.00" arrivalPos="146.39" departSpeed="0" arrivalSpeed="0" color="1,0,0">
        <route edges="11 3"/>
    </vehicle>
    <vehicle id="carIn48:1" type="default" depart="30500" departPos="0.00" arrivalPos="97.19" departSpeed="0" arrivalSpeed="0" color="1,0,0">
        <route edges="-3 3"/>
    </vehicle>
    <vehicle id="carIn68:1" type="default" depart="30500" departPos="0.00" arrivalPos="49.36" departSpeed="0" arrivalSpeed="0" color="1,0,0">
        <route edges="11 3"/>
    </vehicle>
    <vehicle id="carIn71:1" type="default" depart="30524" departPos="0.00" arrivalPos="58.40" departSpeed="0" arrivalSpeed="0" color="1,0,0">
        <route edges="-3 11"/>
    </vehicle>
    <vehicle id="carIn16:1" type="default" depart="30532" departPos="0.00" arrivalPos="171.82" departSpeed="0" arrivalSpeed="0" color="1,0,0">
        <route edges="11 3"/>
    </vehicle>
    <vehicle id="carIn9:1" type="default" depart="30546" departPos="0.00" arrivalPos="63.07" departSpeed="0" arrivalSpeed="0" color="1,0,0">
        <route edges="11 3"/>
    </vehicle>
    <vehicle id="carIn59:1" type="default" depart="30547" departPos="0.00" arrivalPos="176.31" departSpeed="0" arrivalSpeed="0" color="1,0,0">
        <route edges="-3 3"/>
    </vehicle>
    <vehicle id="carIn11:1" type="default" depart="30562" departPos="0.00" arrivalPos="156.94" departSpeed="0" arrivalSpeed="0" color="1,0,0">
        <route edges="-3 3"/>
    </vehicle>
    <vehicle id="carIn52:1" type="default" depart="30563" departPos="0.00" arrivalPos="20.87" departSpeed="0" arrivalSpeed="0" color="1,0,0">
        <route edges="11 3"/>
    </vehicle>
    <vehicle id="carIn28:1" type="default" depart="30573" departPos="0.00" arrivalPos="129.17" departSpeed="0" arrivalSpeed="0" color="1,0,0">
        <route edges="11 -3"/>
    </vehicle>
    <vehicle id="carIn88:1" type="default" depart="30583" departPos="0.00" arrivalPos="84.74" departSpeed="0" arrivalSpeed="0" color="1,0,0">
        <route edges="11 3"/>
    </vehicle>
    <vehicle id="carIn29:1" type="default" depart="30607" departPos="0.00" arrivalPos="210.90" departSpeed="0" arrivalSpeed="0" color="1,0,0">
        <route edges="-3 11"/>
    </vehicle>
    <vehicle id="carIn36:1" type="default" depart="30613" departPos="0.00" arrivalPos="88.47" departSpeed="0" arrivalSpeed="0" color="1,0,0">
        <route edges="-3 11"/>
    </vehicle>
    <vehicle id="carIn75:1" type="default" depart="30620" departPos="0.00" arrivalPos="69.22" departSpeed="0" arrivalSpeed="0" color="1,0,0">
        <route edges="-3 3"/>
    </vehicle>
    <vehicle id="carIn76:1" type="default" depart="30627" departPos="0.00" arrivalPos="122.47" departSpeed="0" arrivalSpeed="0" color="1,0,0">
        <route edges="11 3"/>
    </vehicle>
    <vehicle id="carIn35:1" type="default" depart="30722" departPos="0.00" arrivalPos="41.83" departSpeed="0" arrivalSpeed="0" color="1,0,0">
        <route edges="11 3"/>
    </vehicle>
    <vehicle id="carIn78:1" type="default" depart="30722" departPos="0.00" arrivalPos="191.48" departSpeed="0" arrivalSpeed="0" color="1,0,0">
        <route edges="-3 3"/>
    </vehicle>
    <vehicle id="carIn34:1" type="default" depart="30736" departPos="0.00" arrivalPos="135.56" departSpeed="0" arrivalSpeed="0" color="1,0,0">
        <route edges="-3 3"/>
    </vehicle>
    <vehicle id="carIn14:1" type="default" depart="30741" departPos="0.00" arrivalPos="211.60" departSpeed="0" arrivalSpeed="0" color="1,0,0">
        <route edges="11 11"/>
    </vehicle>
    <vehicle id="carIn96:1" type="default" depart="30753" departPos="0.00" arrivalPos="117.51" departSpeed="0" arrivalSpeed="0" color="1,0,0">
        <route edges="-3 -3"/>
    </vehicle>
    <vehicle id="carIn77:1" type="default" depart="30804" departPos="0.00" arrivalPos="10.00" departSpeed="0" arrivalSpeed="0" color="1,0,0">
        <route edges="11 3"/>
    </vehicle>
    <vehicle id="carIn64:1" type="default" depart="30815" departPos="0.00" arrivalPos="22.35" departSpeed="0" arrivalSpeed="0" color="1,0,0">
        <route edges="-3 3"/>
    </vehicle>
    <vehicle id="carIn3:1" type="default" depart="30926" departPos="0.00" arrivalPos="43.70" departSpeed="0" arrivalSpeed="0" color="1,0,0">
        <route edges="-3 11"/>
    </vehicle>
    <vehicle id="carIn41:1" type="default" depart="32037" departPos="0.00" arrivalPos="46.05" departSpeed="0" arrivalSpeed="0" color="1,0,0">
        <route edges="11 -3"/>
    </vehicle>
    <vehicle id="carIn74:1" type="default" depart="32118" departPos="0.00" arrivalPos="132.46" departSpeed="0" arrivalSpeed="0" color="1,0,0">
        <route edges="11 3"/>
    </vehicle>
    <vehicle id="carIn5:1" type="default" depart="32128" departPos="0.00" arrivalPos="157.24" departSpeed="0" arrivalSpeed="0" color="1,0,0">
        <route edges="-3 11"/>
    </vehicle>
    <vehicle id="carIn70:1" type="default" depart="32152" departPos="0.00" arrivalPos="66.63" departSpeed="0" arrivalSpeed="0" color="1,0,0">
        <route edges="-3 3"/>
    </vehicle>
    <vehicle id="carIn27:1" type="default" depart="32153" departPos="0.00" arrivalPos="31.35" departSpeed="0" arrivalSpeed="0" color="1,0,0">
        <route edges="-3 3"/>
    </vehicle>
    <vehicle id="carIn39:1" type="default" depart="32171" departPos="0.00" arrivalPos="145.63" departSpeed="0" arrivalSpeed="0" color="1,0,0">
        <route edges="11 3"/>
    </vehicle>
    <vehicle id="carIn20:1" type="default" depart="32176" departPos="0.00" arrivalPos="68.96" departSpeed="0" arrivalSpeed="0" color="1,0,0">
        <route edges="-3 -3"/>
    </vehicle>
    <vehicle id="carIn47:1" type="default" depart="32179" departPos="0.00" arrivalPos="59.13" departSpeed="0" arrivalSpeed="0" color="1,0,0">
        <route edges="-3 -3"/>
    </vehicle>
    <vehicle id="carIn53:1" type="default" depart="32188" departPos="0.00" arrivalPos="31.27" departSpeed="0" arrivalSpeed="0" color="1,0,0">
        <route edges="-3 11"/>
    </vehicle>
    <vehicle id="carIn51:1" type="default" depart="32201" departPos="0.00" arrivalPos="37.87" departSpeed="0" arrivalSpeed="0" color="1,0,0">
        <route edges="-3 3"/>
    </vehicle>
    <vehicle id="carIn69:1" type="default" depart="32201" departPos="0.00" arrivalPos="87.50" departSpeed="0" arrivalSpeed="0" color="1,0,0">
        <route edges="11 11"/>
    </vehicle>
    <vehicle id="carIn57:1" type="default" depart="32203" departPos="0.00" arrivalPos="190.30" departSpeed="0" arrivalSpeed="0" color="1,0,0">
        <route edges="-3 3"/>
    </vehicle>
    <vehicle id="carIn2:1" type="default" depart="32205" departPos="0.00" arrivalPos="47.21" departSpeed="0" arrivalSpeed="0" color="1,0,0">
        <route edges="-3 3"/>
    </vehicle>
    <vehicle id="carIn60:1" type="default" depart="32213" departPos="0.00" arrivalPos="19.95" departSpeed="0" arrivalSpeed="0" color="1,0,0">
        <route edges="11 3"/>
    </vehicle>
    <vehicle id="carIn95:1" type="default" depart="32232" departPos="0.00" arrivalPos="59.91" departSpeed="0" arrivalSpeed="0" color="1,0,0">
        <route edges="11 3"/>
    </vehicle>
    <vehicle id="carIn45:1" type="default" depart="32238" departPos="0.00" arrivalPos="197.05" departSpeed="0" arrivalSpeed="0" color="1,0,0">
        <route edges="11 3"/>
    </vehicle>
    <vehicle id="carIn18:1" type="default" depart="32251" departPos="0.00" arrivalPos="58.39" departSpeed="0" arrivalSpeed="0" color="1,0,0">
        <route edges="-3 3"/>
    </vehicle>
    <vehicle id="carIn44:1" type="default" depart="32258" departPos="0.00" arrivalPos="124.91" departSpeed="0" arrivalSpeed="0" color="1,0,0">
        <route edges="11 -3"/>
    </vehicle>
    <vehicle id="carIn43:1" type="default" depart="32267" departPos="0.00" arrivalPos="202.43" departSpeed="0" arrivalSpeed="0" color="1,0,0">
        <route edges="11 11"/>
    </vehicle>
    <vehicle id="carIn50:1" type="default" depart="32275" departPos="0.00" arrivalPos="197.11" departSpeed="0" arrivalSpeed="0" color="1,0,0">
        <route edges="-3 3"/>
    </vehicle>
    <vehicle id="carIn8:1" type="default" depart="32276" departPos="0.00" arrivalPos="40.42" departSpeed="0" arrivalSpeed="0" color="1,0,0">
        <route edges="11 11"/>
    </vehicle>
    <vehicle id="carIn73:1" type="default" depart="32276" departPos="0.00" arrivalPos="11.86" departSpeed="0" arrivalSpeed="0" color="1,0,0">
        <route edges="11 3"/>
    </vehicle>
    <vehicle id="carIn92:1" type="default" depart="32284" departPos="0.00" arrivalPos="71.46" departSpeed="0" arrivalSpeed="0" color="1,0,0">
        <route edges="-3 3"/>
    </vehicle>
    <vehicle id="carIn94:1" type="default" depart="32284" departPos="0.00" arrivalPos="132.80" departSpeed="0" arrivalSpeed="0" color="1,0,0">
        <route edges="11 3"/>
    </vehicle>
    <vehicle id="carIn31:1" type="default" depart="32287" departPos="0.00" arrivalPos="170.55" departSpeed="0" arrivalSpeed="0" color="1,0,0">
        <route edges="-3 3"/>
    </vehicle>
    <vehicle id="carIn65:1" type="default" depart="32293" departPos="0.00" arrivalPos="195.46" departSpeed="0" arrivalSpeed="0" color="1,0,0">
        <route edges="-3 11"/>
    </vehicle>
    <vehicle id="carIn30:1" type="default" depart="32300" departPos="0.00" arrivalPos="184.96" departSpeed="0" arrivalSpeed="0" color="1,0,0">
        <route edges="-3 11"/>
    </vehicle>
    <vehicle id="carIn56:1" type="default" depart="32305" departPos="0.00" arrivalPos="113.74" departSpeed="0" arrivalSpeed="0" color="1,0,0">
        <route edges="11 3"/>
    </vehicle>
    <vehicle id="carIn85:1" type="default" depart="32305" departPos="0.00" arrivalPos="82.17" departSpeed="0" arrivalSpeed="0" color="1,0,0">
        <route edges="-3 3"/>
    </vehicle>
    <vehicle id="carIn17:1" type="default" depart="32311" departPos="0.00" arrivalPos="69.68" departSpeed="0" arrivalSpeed="0" color="1,0,0">
        <route edges="-3 3"/>
    </vehicle>
    <vehicle id="carIn10:1" type="default" depart="32323" departPos="0.00" arrivalPos="192.38" departSpeed="0" arrivalSpeed="0" color="1,0,0">
        <route edges="-3 -3"/>
    </vehicle>
    <vehicle id="carIn1:1" type="default" depart="32327" departPos="0.00" arrivalPos="195.25" departSpeed="0" arrivalSpeed="0" color="1,0,0">
        <route edges="11 3"/>
    </vehicle>
    <vehicle id="carIn55:1" type="default" depart="32333" departPos="0.00" arrivalPos="167.57" departSpeed="0" arrivalSpeed="0" color="1,0,0">
        <route edges="11 3"/>
    </vehicle>
    <vehicle id="carIn90:1" type="default" depart="32344" departPos="0.00" arrivalPos="37.62" departSpeed="0" arrivalSpeed="0" color="1,0,0">
        <route edges="11 -3"/>
    </vehicle>
    <vehicle id="carIn24:1" type="default" depart="32346" departPos="0.00" arrivalPos="188.27" departSpeed="0" arrivalSpeed="0" color="1,0,0">
        <route edges="11 3"/>
    </vehicle>
    <vehicle id="carIn38:1" type="default" depart="32356" departPos="0.00" arrivalPos="93.09" departSpeed="0" arrivalSpeed="0" color="1,0,0">
        <route edges="-3 11"/>
    </vehicle>
    <vehicle id="carIn99:1" type="default" depart="32357" departPos="0.00" arrivalPos="123.03" departSpeed="0" arrivalSpeed="0" color="1,0,0">
        <route edges="-3 11"/>
    </vehicle>
    <vehicle id="carIn93:1" type="default" depart="32366" departPos="0.00" arrivalPos="151.12" departSpeed="0" arrivalSpeed="0" color="1,0,0">
        <route edges="11 11"/>
    </vehicle>
    <vehicle id="carIn49:1" type="default" depart="32368" departPos="0.00" arrivalPos="69.23" departSpeed="0" arrivalSpeed="0" color="1,0,0">
        <route edges="-3 3"/>
    </vehicle>
    <vehicle id="carIn54:1" type="default" depart="32372" departPos="0.00" arrivalPos="3.15" departSpeed="0" arrivalSpeed="0" color="1,0,0">
        <route edges="-3 -3"/>
    </vehicle>
    <vehicle id="carIn19:1" type="default" depart="32379" departPos="0.00" arrivalPos="93.15" departSpeed="0" arrivalSpeed="0" color="1,0,0">
        <route edges="11 3"/>
    </vehicle>
    <vehicle id="carIn97:1" type="default" depart="32387" departPos="0.00" arrivalPos="75.81" departSpeed="0" arrivalSpeed="0" color="1,0,0">
        <route edges="-3 11"/>
    </vehicle>
    <vehicle id="carIn98:1" type="default" depart="32387" departPos="0.00" arrivalPos="125.94" departSpeed="0" arrivalSpeed="0" color="1,0,0">
        <route edges="11 3"/>
    </vehicle>
    <vehicle id="carIn84:1" type="default" depart="32392" departPos="0.00" arrivalPos="165.52" departSpeed="0" arrivalSpeed="0" color="1,0,0">
        <route edges="-3 11"/>
    </vehicle>
    <vehicle id="carIn7:1" type="default" depart="32393" departPos="0.00" arrivalPos="133.96" departSpeed="0" arrivalSpeed="0" color="1,0,0">
        <route edges="11 3"/>
    </vehicle>
    <vehicle id="carIn67:1" type="default" depart="32394" departPos="0.00" arrivalPos="183.61" departSpeed="0" arrivalSpeed="0" color="1,0,0">
        <route edges="-3 3"/>
    </vehicle>
    <vehicle id="carIn15:1" type="default" depart="32409" departPos="0.00" arrivalPos="124.49" departSpeed="0" arrivalSpeed="0" color="1,0,0">
        <route edges="-3 3"/>
    </vehicle>
    <vehicle id="carIn22:1" type="default" depart="32412" departPos="0.00" arrivalPos="135.31" departSpeed="0" arrivalSpeed="0" color="1,0,0">
        <route edges="-3 3"/>
    </vehicle>
    <vehicle id="carIn79:1" type="default" depart="32418" departPos="0.00" arrivalPos="118.84" departSpeed="0" arrivalSpeed="0" color="1,0,0">
        <route edges="11 3"/>
    </vehicle>
    <vehicle id="carIn91:1" type="default" depart="32419" departPos="0.00" arrivalPos="117.27" departSpeed="0" arrivalSpeed="0" color="1,0,0">
        <route edges="11 3"/>
    </vehicle>
    <vehicle id="carIn12:1" type="default" depart="32420" departPos="0.00" arrivalPos="206.28" departSpeed="0" arrivalSpeed="0" color="1,0,0">
        <route edges="-3 11"/>
    </vehicle>
    <vehicle id="carIn72:1" type="default" depart="32428" departPos="0.00" arrivalPos="103.86" departSpeed="0" arrivalSpeed="0" color="1,0,0">
        <route edges="11 11"/>
    </vehicle>
    <vehicle id="carIn62:1" type="default" depart="32442" departPos="0.00" arrivalPos="195.04" departSpeed="0" arrivalSpeed="0" color="1,0,0">
        <route edges="11 -3"/>
    </vehicle>
    <vehicle id="carIn83:1" type="default" depart="32443" departPos="0.00" arrivalPos="117.98" departSpeed="0" arrivalSpeed="0" color="1,0,0">
        <route edges="11 3"/>
    </vehicle>
    <vehicle id="carIn86:1" type="default" depart="32457" departPos="0.00" arrivalPos="165.50" departSpeed="0" arrivalSpeed="0" color="1,0,0">
        <route edges="-3 3"/>
    </vehicle>
    <vehicle id="carIn26:1" type="default" depart="32464" departPos="0.00" arrivalPos="22.63" departSpeed="0" arrivalSpeed="0" color="1,0,0">
        <route edges="11 3"/>
    </vehicle>
    <vehicle id="carIn100:1" type="default" depart="32467" departPos="0.00" arrivalPos="17.42" departSpeed="0" arrivalSpeed="0" color="1,0,0">
        <route edges="11 3"/>
    </vehicle>
    <vehicle id="carIn80:1" type="default" depart="32481" departPos="0.00" arrivalPos="175.16" departSpeed="0" arrivalSpeed="0" color="1,0,0">
        <route edges="11 -3"/>
    </vehicle>
    <vehicle id="carIn58:1" type="default" depart="32491" departPos="0.00" arrivalPos="31.71" departSpeed="0" arrivalSpeed="0" color="1,0,0">
        <route edges="11 3"/>
    </vehicle>
    <vehicle id="carIn23:1" type="default" depart="32496" departPos="0.00" arrivalPos="48.09" departSpeed="0" arrivalSpeed="0" color="1,0,0">
        <route edges="11 3"/>
    </vehicle>
    <vehicle id="carIn87:1" type="default" depart="32496" departPos="0.00" arrivalPos="109.59" departSpeed="0" arrivalSpeed="0" color="1,0,0">
        <route edges="-3 3"/>
    </vehicle>
    <vehicle id="carIn33:1" type="default" depart="32498" departPos="0.00" arrivalPos="89.18" departSpeed="0" arrivalSpeed="0" color="1,0,0">
        <route edges="11 -3"/>
    </vehicle>
    <vehicle id="carIn63:1" type="default" depart="32506" departPos="0.00" arrivalPos="79.92" departSpeed="0" arrivalSpeed="0" color="1,0,0">
        <route edges="-3 3"/>
    </vehicle>
    <vehicle id="carIn82:1" type="default" depart="32506" departPos="0.00" arrivalPos="179.85" departSpeed="0" arrivalSpeed="0" color="1,0,0">
        <route edges="-3 3"/>
    </vehicle>
    <vehicle id="carIn25:1" type="default" depart="32510" departPos="0.00" arrivalPos="151.76" departSpeed="0" arrivalSpeed="0" color="1,0,0">
        <route edges="11 3"/>
    </vehicle>
    <vehicle id="carIn40:1" type="default" depart="32515" departPos="0.00" arrivalPos="97.10" departSpeed="0" arrivalSpeed="0" color="1,0,0">
        <route edges="11 3"/>
    </vehicle>
    <vehicle id="carIn61:1" type="default" depart="32587" departPos="0.00" arrivalPos="163.24" departSpeed="0" arrivalSpeed="0" color="1,0,0">
        <route edges="11 -3"/>
    </vehicle>
    <vehicle id="randUni14:1" type="random" depart="34071" departPos="174.08" arrivalPos="126.59" departSpeed="0" arrivalSpeed="0" color="0,0,1">
        <route edges="3 -3"/>
    </vehicle>
    <vehicle id="randUni59:1" type="random" depart="35137" departPos="150.37" arrivalPos="202.84" departSpeed="0" arrivalSpeed="0" color="0,0,1">
        <route edges="13 11"/>
    </vehicle>
    <vehicle id="randUni93:1" type="random" depart="37766" departPos="120.30" arrivalPos="132.88" departSpeed="0" arrivalSpeed="0" color="0,0,1">
        <route edges="-3 3"/>
    </vehicle>
    <vehicle id="h57c1:1" type="default" depart="38881" departPos="98.99" arrivalPos="69.22" departSpeed="0" arrivalSpeed="0" color="1,0,0">
        <route edges="11 3"/>
    </vehicle>
    <vehicle id="randUni110:1" type="random" depart="42175" departPos="158.35" arrivalPos="127.79" departSpeed="0" arrivalSpeed="0" color="0,0,1">
        <route edges="-3 -3"/>
    </vehicle>
    <vehicle id="carIn81:3" type="default" depart="42915" departPos="157.08" arrivalPos="0.00" departSpeed="0" arrivalSpeed="0" color="1,0,0">
        <route edges="11 11"/>
    </vehicle>
    <vehicle id="carIn57:3" type="default" depart="42916" departPos="190.30" arrivalPos="0.00" departSpeed="0" arrivalSpeed="0" color="1,0,0">
        <route edges="3 -3"/>
    </vehicle>
    <vehicle id="carIn84:3" type="default" depart="43039" departPos="165.52" arrivalPos="0.00" departSpeed="0" arrivalSpeed="0" color="1,0,0">
        <route edges="11 -3"/>
    </vehicle>
    <vehicle id="carIn58:3" type="default" depart="43043" departPos="31.71" arrivalPos="0.00" departSpeed="0" arrivalSpeed="0" color="1,0,0">
        <route edges="3 11"/>
    </vehicle>
    <vehicle id="carIn9:3" type="default" depart="43076" departPos="63.07" arrivalPos="0.00" departSpeed="0" arrivalSpeed="0" color="1,0,0">
        <route edges="3 11"/>
    </vehicle>
    <vehicle id="carIn19:3" type="default" depart="43090" departPos="93.15" arrivalPos="0.00" departSpeed="0" arrivalSpeed="0" color="1,0,0">
        <route edges="3 11"/>
    </vehicle>
    <vehicle id="carIn33:3" type="default" depart="43116" departPos="89.18" arrivalPos="0.00" departSpeed="0" arrivalSpeed="0" color="1,0,0">
        <route edges="-3 11"/>
    </vehicle>
    <vehicle id="carIn86:3" type="default" depart="43117" departPos="165.50" arrivalPos="0.00" departSpeed="0" arrivalSpeed="0" color="1,0,0">
        <route edges="3 -3"/>
    </vehicle>
    <vehicle id="carIn2:3" type="default" depart="43137" departPos="47.21" arrivalPos="0.00" departSpeed="0" arrivalSpeed="0" color="1,0,0">
        <route edges="3 -3"/>
    </vehicle>
    <vehicle id="carIn16:3" type="default" depart="43144" departPos="171.82" arrivalPos="0.00" departSpeed="0" arrivalSpeed="0" color="1,0,0">
        <route edges="3 11"/>
    </vehicle>
    <vehicle id="carIn30:3" type="default" depart="43146" departPos="184.96" arrivalPos="0.00" departSpeed="0" arrivalSpeed="0" color="1,0,0">
        <route edges="11 -3"/>
    </vehicle>
    <vehicle id="carIn4:3" type="default" depart="43156" departPos="95.87" arrivalPos="0.00" departSpeed="0" arrivalSpeed="0" color="1,0,0">
        <route edges="11 -3"/>
    </vehicle>
    <vehicle id="carIn52:3" type="default" depart="43173" departPos="20.87" arrivalPos="0.00" departSpeed="0" arrivalSpeed="0" color="1,0,0">
        <route edges="3 11"/>
    </vehicle>
    <vehicle id="carIn44:3" type="default" depart="43213" departPos="124.91" arrivalPos="0.00" departSpeed="0" arrivalSpeed="0" color="1,0,0">
        <route edges="-3 11"/>
    </vehicle>
    <vehicle id="carIn70:3" type="default" depart="43254" departPos="66.63" arrivalPos="0.00" departSpeed="0" arrivalSpeed="0" color="1,0,0">
        <route edges="3 -3"/>
    </vehicle>
    <vehicle id="carIn95:3" type="default" depart="43264" departPos="59.91" arrivalPos="0.00" departSpeed="0" arrivalSpeed="0" color="1,0,0">
        <route edges="3 11"/>
    </vehicle>
    <vehicle id="carIn80:3" type="default" depart="43270" departPos="175.16" arrivalPos="0.00" departSpeed="0" arrivalSpeed="0" color="1,0,0">
        <route edges="-3 11"/>
    </vehicle>
    <vehicle id="carIn32:3" type="default" depart="43299" departPos="160.73" arrivalPos="0.00" departSpeed="0" arrivalSpeed="0" color="1,0,0">
        <route edges="11 -3"/>
    </vehicle>
    <vehicle id="carIn17:3" type="default" depart="43343" departPos="69.68" arrivalPos="0.00" departSpeed="0" arrivalSpeed="0" color="1,0,0">
        <route edges="3 -3"/>
    </vehicle>
    <vehicle id="carIn93:3" type="default" depart="43377" departPos="151.12" arrivalPos="0.00" departSpeed="0" arrivalSpeed="0" color="1,0,0">
        <route edges="11 11"/>
    </vehicle>
    <vehicle id="randUni89:1" type="random" depart="43648" departPos="43.68" arrivalPos="104.47" departSpeed="0" arrivalSpeed="0" color="0,0,1">
        <route edges="3 -3"/>
    </vehicle>
    <vehicle id="randUni107:1" type="random" depart="43883" departPos="25.20" arrivalPos="165.16" departSpeed="0" arrivalSpeed="0" color="0,0,1">
        <route edges="3 11"/>
    </vehicle>
    <vehicle id="randUni109:1" type="random" depart="45229" departPos="114.13" arrivalPos="144.77" departSpeed="0" arrivalSpeed="0" color="0,0,1">
        <route edges="13 3"/>
    </vehicle>
    <vehicle id="randUni32:1" type="random" depart="45264" departPos="75.13" arrivalPos="137.47" departSpeed="0" arrivalSpeed="0" color="0,0,1">
        <route edges="11 -3"/>
    </vehicle>
    <vehicle id="randUni112:1" type="random" depart="46958" departPos="112.88" arrivalPos="176.11" departSpeed="0" arrivalSpeed="0" color="0,0,1">
        <route edges="-3 -3"/>
    </vehicle>
    <vehicle id="randUni69:1" type="random" depart="48028" departPos="156.54" arrivalPos="58.35" departSpeed="0" arrivalSpeed="0" color="0,0,1">
        <route edges="3 11"/>
    </vehicle>