<?xml version="1.0" encoding="UTF-8"?>

<!-- generated on 10/23/14 11:39:15 by SUMO netgenerate Version 0.21.0
<?xml version="1.0" encoding="UTF-8"?>

<configuration xmlns:xsi="http://www.w3.org/2001/XMLSchema-instance" xsi:noNamespaceSchemaLocation="http://sumo-sim.org/xsd/netgenerateConfiguration.xsd">

    <random_network>
        <rand value="true"/>
        <rand.iterations value="4"/>
        <rand.bidi-probability value="0.5"/>
    </random_network>

    <output>
        <output-file value="..\multilane.net.xml"/>
    </output>

    <processing>
        <no-internal-links value="true"/>
    </processing>

    <building_defaults>
        <default.lanenumber value="2"/>
    </building_defaults>

    <random_number>
        <seed value="88"/>
    </random_number>

</configuration>
-->

<net version="0.13" xmlns:xsi="http://www.w3.org/2001/XMLSchema-instance" xsi:noNamespaceSchemaLocation="http://sumo-sim.org/xsd/net_file.xsd">

    <location netOffset="153.32,166.79" convBoundary="0.00,0.00,276.93,385.42" origBoundary="-153.32,-166.79,123.61,218.63" projParameter="!"/>

    <edge id="-3" from="2" to="1" priority="-1">
        <lane id="-3_0" index="0" speed="13.90" length="202.97" shape="3.11,39.03 149.95,157.71"/>
        <lane id="-3_1" index="1" speed="13.90" length="202.97" shape="1.04,41.60 147.88,160.27"/>
    </edge>
    <edge id="11" from="1" to="10" priority="-1">
        <lane id="11_0" index="0" speed="13.90" length="213.44" shape="154.61,156.74 272.95,-2.95"/>
        <lane id="11_1" index="1" speed="13.90" length="213.44" shape="157.26,158.70 275.60,-0.98"/>
    </edge>
    <edge id="13" from="1" to="12" priority="-1">
        <lane id="13_0" index="0" speed="13.90" length="251.09" shape="156.91,162.92 268.87,383.18"/>
        <lane id="13_1" index="1" speed="13.90" length="251.09" shape="153.97,164.42 265.92,384.68"/>
    </edge>
    <edge id="3" from="1" to="2" priority="-1">
        <lane id="3_0" index="0" speed="13.90" length="202.97" shape="143.73,165.41 -3.11,46.73"/>
        <lane id="3_1" index="1" speed="13.90" length="202.97" shape="145.80,162.84 -1.04,44.16"/>
    </edge>

    <junction id="1" type="priority" x="153.32" y="166.79" incLanes="-3_0 -3_1" intLanes="" shape="152.54,165.14 158.33,162.20 158.55,159.66 153.33,155.79 150.96,156.46 142.73,166.65">
        <request index="0" response="00000" foes="00000"/>
        <request index="1" response="00000" foes="00000"/>
        <request index="2" response="00000" foes="00000"/>
        <request index="3" response="00000" foes="00000"/>
        <request index="4" response="00000" foes="00000"/>
    </junction>
    <junction id="10" type="unregulated" x="276.93" y="0.00" incLanes="11_0 11_1" intLanes="" shape="271.66,-3.90 276.89,-0.03"/>
    <junction id="12" type="unregulated" x="264.45" y="385.42" incLanes="13_0 13_1" intLanes="" shape="270.29,382.46 264.50,385.40"/>
    <junction id="2" type="priority" x="0.00" y="42.88" incLanes="3_0 3_1" intLanes="" shape="0.03,42.84 4.12,37.79 -4.12,47.98 -0.03,42.92">
        <request index="0" response="0" foes="0"/>
    </junction>

    <connection from="-3" to="11" fromLane="0" toLane="0" dir="r" state="M"/>
    <connection from="-3" to="11" fromLane="0" toLane="1" dir="r" state="M"/>
    <connection from="-3" to="13" fromLane="0" toLane="0" dir="s" state="M"/>
    <connection from="-3" to="13" fromLane="1" toLane="1" dir="s" state="M"/>
    <connection from="-3" to="3" fromLane="1" toLane="1" dir="t" state="M"/>
    <connection from="3" to="-3" fromLane="1" toLane="1" dir="t" state="M"/>

</net>
