<?xml version="1.0" encoding="UTF-8"?>

<!-- generated on 01/12/15 20:59:29 by SUMO netconvert Version 0.22.0
<?xml version="1.0" encoding="UTF-8"?>

<configuration xmlns:xsi="http://www.w3.org/2001/XMLSchema-instance" xsi:noNamespaceSchemaLocation="http://sumo.dlr.de/xsd/netconvertConfiguration.xsd">

    <input>
        <osm-files value="map.osm"/>
    </input>

    <output>
        <output-file value="map.net.xml"/>
    </output>

    <projection>
        <proj.utm value="true"/>
    </projection>

    <processing>
        <no-internal-links value="true"/>
    </processing>

</configuration>
-->

<net version="0.13" xmlns:xsi="http://www.w3.org/2001/XMLSchema-instance" xsi:noNamespaceSchemaLocation="http://sumo.dlr.de/xsd/net_file.xsd">

    <location netOffset="-382190.05,-5201895.10" convBoundary="0.00,0.00,981.21,639.48" origBoundary="7.451430,46.960245,7.464281,46.966037" projParameter="+proj=utm +zone=32 +ellps=WGS84 +datum=WGS84 +units=m +no_defs"/>

    <edge id="-141361975#0" from="611657356" to="34484975" priority="4" type="highway.residential" shape="531.20,346.47 565.45,359.01 614.00,374.47 674.25,393.91 680.76,396.02 691.93,386.98 747.84,341.69 749.23,340.56 768.13,325.84 783.03,314.13 826.30,279.04 844.51,264.22 852.77,257.66">
        <lane id="-141361975#0_0" index="0" speed="8.33" length="378.34" shape="535.19,346.17 566.02,357.46 614.50,372.90 674.75,392.34 680.42,394.17 690.89,385.70 746.80,340.40 748.19,339.28 767.12,324.53 782.01,312.83 825.26,277.76 843.47,262.94 851.74,256.37"/>
    </edge>
    <edge id="-141361975#1" from="611657327" to="611657356" priority="4" type="highway.residential">
        <lane id="-141361975#1_0" index="0" speed="8.33" length="48.85" shape="488.41,330.74 529.14,344.06"/>
    </edge>
    <edge id="-141361975#2" from="371198092" to="611657327" priority="4" type="highway.residential">
        <lane id="-141361975#2_0" index="0" speed="8.33" length="22.29" shape="468.81,324.33 482.51,328.81"/>
    </edge>
    <edge id="-141361975#3" from="613042407" to="371198092" priority="4" type="highway.residential">
        <lane id="-141361975#3_0" index="0" speed="8.33" length="7.55" shape="461.67,320.61 461.82,320.74"/>
    </edge>
    <edge id="-141361975#4" from="34484978" to="613042407" priority="4" type="highway.residential">
        <lane id="-141361975#4_0" index="0" speed="8.33" length="4.81" shape="456.87,316.67 457.02,316.79"/>
    </edge>
    <edge id="-23383834#0" from="615160177" to="253185641" priority="4" type="highway.residential" shape="326.80,455.56 277.13,439.20 263.95,434.86 258.96,435.00">
        <lane id="-23383834#0_0" index="0" speed="13.89" length="71.16" shape="321.73,455.63 276.61,440.77 263.84,436.56"/>
    </edge>
    <edge id="-23383834#1" from="615160175" to="615160177" priority="4" type="highway.residential">
        <lane id="-23383834#1_0" index="0" speed="13.89" length="8.22" shape="331.11,458.73 330.76,458.61"/>
    </edge>
    <edge id="-23383834#2" from="615160300" to="615160175" priority="4" type="highway.residential">
        <lane id="-23383834#2_0" index="0" speed="13.89" length="68.96" shape="396.61,480.31 336.99,460.67"/>
    </edge>
    <edge id="-23383834#3" from="614555608" to="615160300" priority="4" type="highway.residential">
        <lane id="-23383834#3_0" index="0" speed="13.89" length="160.98" shape="552.48,531.67 402.50,482.25"/>
    </edge>
    <edge id="-23386784#0" from="615159973" to="253220639" priority="4" type="highway.residential" shape="159.65,449.83 152.74,446.49 147.87,442.38 140.78,436.93 134.30,433.05 126.48,429.57 106.06,422.84 62.67,407.46 53.87,404.33 27.47,394.44 8.94,387.30 0.00,384.06">
        <lane id="-23386784#0_0" index="0" speed="8.33" length="173.54" shape="156.05,449.92 151.84,447.89 146.81,443.65 139.77,438.24 133.45,434.46 125.81,431.07 105.55,424.41 62.12,409.01 53.32,405.89 26.89,395.98 8.34,388.84 -0.56,385.61"/>
    </edge>
    <edge id="-23386784#1" from="253240365" to="615159973" priority="4" type="highway.residential" shape="186.70,459.04 173.18,455.45 160.71,450.35 159.65,449.83">
        <lane id="-23386784#1_0" index="0" speed="8.33" length="28.64" shape="181.33,459.32 172.75,457.04 161.68,452.52"/>
    </edge>
    <edge id="-23386784#2" from="615160011" to="253240365" priority="4" type="highway.residential" shape="204.45,462.75 202.46,462.38 186.70,459.04">
        <lane id="-23386784#2_0" index="0" speed="8.33" length="18.14" shape="201.18,463.80 191.41,461.73"/>
    </edge>
    <edge id="-23386784#3" from="32462569" to="615160011" priority="4" type="highway.residential" shape="260.86,468.69 247.59,468.14 233.49,466.92 220.27,465.21 204.45,462.75">
        <lane id="-23386784#3_0" index="0" speed="8.33" length="56.78" shape="255.76,470.13 247.52,469.79 233.35,468.56 220.05,466.85 207.41,464.88"/>
    </edge>
    <edge id="-310645753#0" from="253220643" to="31306643" priority="6" type="highway.tertiary">
        <lane id="-310645753#0_0" index="0" speed="13.89" length="14.48" shape="252.27,349.99 252.12,347.29"/>
    </edge>
    <edge id="-310645753#1" from="253220631" to="253220643" priority="6" type="highway.tertiary">
        <lane id="-310645753#1_0" index="0" speed="13.89" length="54.02" shape="255.38,402.59 252.66,356.44"/>
    </edge>
    <edge id="-310645753#2" from="253185648" to="253220631" priority="6" type="highway.tertiary">
        <lane id="-310645753#2_0" index="0" speed="13.89" length="13.49" shape="256.25,417.36 255.75,408.78"/>
    </edge>
    <edge id="-310645753#3" from="253185641" to="253185648" priority="6" type="highway.tertiary">
        <lane id="-310645753#3_0" index="0" speed="13.89" length="15.85" shape="257.04,430.46 256.64,423.81"/>
    </edge>
    <edge id="-44522386#0" from="613042055" to="32462861" priority="6" type="highway.tertiary" shape="250.98,300.14 246.38,222.37 242.00,148.47 240.48,123.09 237.86,78.37 235.50,38.48 235.23,31.78 235.25,26.91 235.57,18.96">
        <lane id="-44522386#0_0" index="0" speed="13.89" length="281.65" shape="249.06,295.50 244.73,222.46 240.36,148.57 238.84,123.19 236.21,78.47 233.85,38.58 233.59,31.85 233.60,26.91 233.92,18.89"/>
    </edge>
    <edge id="-44522386#1" from="610223340" to="613042055" priority="6" type="highway.tertiary">
        <lane id="-44522386#1_0" index="0" speed="13.89" length="21.46" shape="250.48,319.76 249.62,304.98"/>
    </edge>
    <edge id="-44522386#2" from="31306643" to="610223340" priority="6" type="highway.tertiary">
        <lane id="-44522386#2_0" index="0" speed="13.89" length="15.79" shape="250.94,327.54 250.87,326.21"/>
    </edge>
    <edge id="-47975952#0" from="253185652" to="610223559" priority="7" type="highway.secondary" shape="607.00,455.99 561.50,440.29 484.40,414.85 473.40,411.22 452.31,404.52">
        <lane id="-47975952#0_0" index="0" speed="13.89" length="163.04" shape="605.39,460.67 559.89,444.97 482.85,419.55 471.85,415.92 450.81,409.24"/>
        <lane id="-47975952#0_1" index="1" speed="13.89" length="163.04" shape="606.47,457.55 560.97,441.85 483.88,416.42 472.88,412.79 451.93,406.13"/>
    </edge>
    <edge id="-47975952#1" from="611657732" to="253185652" priority="7" type="highway.secondary" shape="810.33,523.35 737.03,498.99 650.37,470.33 626.00,462.26 607.00,455.99">
        <lane id="-47975952#1_0" index="0" speed="13.89" length="214.19" shape="808.77,528.05 735.47,503.68 648.81,475.03 624.44,466.96 605.45,460.68"/>
        <lane id="-47975952#1_1" index="1" speed="13.89" length="214.19" shape="809.81,524.92 736.51,500.55 649.85,471.90 625.48,463.83 606.48,457.55"/>
    </edge>
    <edge id="-47975953#0" from="613042439" to="514540459" priority="4" type="highway.residential">
        <lane id="-47975953#0_0" index="0" speed="8.33" length="12.09" shape="439.70,332.45 433.66,338.55"/>
    </edge>
    <edge id="-47975953#1" from="34484978" to="613042439" priority="4" type="highway.residential" shape="454.04,316.51 445.34,324.40 440.99,328.80">
        <lane id="-47975953#1_0" index="0" speed="8.33" length="17.93" shape="451.98,320.60 446.64,325.45"/>
    </edge>
    <edge id="-47975953#2" from="2707251798" to="34484978" priority="4" type="highway.residential">
        <lane id="-47975953#2_0" index="0" speed="8.33" length="10.18" shape="462.44,310.53 458.86,314.07"/>
    </edge>
    <edge id="-47975953#3" from="32462849" to="2707251798" priority="4" type="highway.residential" shape="651.70,111.54 646.73,118.45 644.87,123.89 644.38,125.78 642.01,128.94 637.71,131.39 630.90,135.28 611.98,155.00 594.06,172.81 585.24,179.20 580.65,185.34 578.66,190.70 575.64,195.42 561.81,209.62 540.21,231.23 534.77,236.62 461.28,309.36">
        <lane id="-47975953#3_0" index="0" speed="8.33" length="276.87" shape="653.04,112.50 648.21,119.22 646.43,124.42 645.90,126.51 643.13,130.20 638.53,132.82 631.92,136.59 613.18,156.14 595.22,173.98 586.42,180.39 582.12,186.13 580.14,191.44 576.94,196.45 562.99,210.77 541.37,232.40 535.93,237.79 462.44,310.53"/>
    </edge>
    <edge id="-47975996#0" from="610223420" to="610223553" priority="2" type="highway.service">
        <lane id="-47975996#0_0" index="0" allow="delivery" speed="5.56" length="6.57" shape="422.79,357.66 422.81,357.78"/>
    </edge>
    <edge id="-47975996#1" from="610223421" to="610223420" priority="2" type="highway.service">
        <lane id="-47975996#1_0" index="0" allow="delivery" speed="5.56" length="6.30" shape="420.09,346.12 420.14,346.31"/>
    </edge>
    <edge id="-47975996#2" from="610223415" to="610223421" priority="2" type="highway.service" shape="409.22,337.88 413.64,341.79 418.32,345.91">
        <lane id="-47975996#2_0" index="0" allow="delivery" speed="5.56" length="12.13" shape="413.15,339.15 414.73,340.55 415.50,341.23"/>
    </edge>
    <edge id="-47975996#3" from="610223378" to="610223415" priority="2" type="highway.service" shape="374.06,322.20 396.59,330.13 405.32,334.44 409.22,337.88">
        <lane id="-47975996#3_0" index="0" allow="delivery" speed="5.56" length="38.82" shape="377.54,321.68 397.14,328.57 406.24,333.05 407.37,334.05"/>
    </edge>
    <edge id="-48238362#0" from="615159798" to="603824422" priority="7" type="highway.secondary" shape="182.23,313.20 144.95,300.54 111.33,289.11 110.86,288.95 85.43,280.30">
        <lane id="-48238362#0_0" index="0" speed="13.89" length="102.23" shape="177.90,316.95 143.36,305.23 109.74,293.79 109.30,293.65 83.84,284.99"/>
        <lane id="-48238362#0_1" index="1" speed="13.89" length="102.23" shape="178.96,313.83 144.42,302.10 110.80,290.67 110.34,290.52 84.90,281.86"/>
    </edge>
    <edge id="-48238362#1" from="615160030" to="615159798" priority="7" type="highway.secondary">
        <lane id="-48238362#1_0" index="0" speed="13.89" length="35.89" shape="211.91,328.52 183.77,318.95"/>
        <lane id="-48238362#1_1" index="1" speed="13.89" length="35.89" shape="212.97,325.40 184.83,315.83"/>
    </edge>
    <edge id="-48238362#2" from="31306643" to="615160030" priority="7" type="highway.secondary" shape="253.18,337.32 239.95,332.81 216.21,324.76">
        <lane id="-48238362#2_0" index="0" speed="13.89" length="39.05" shape="244.31,339.53 238.36,337.50 217.78,330.52"/>
        <lane id="-48238362#2_1" index="1" speed="13.89" length="39.05" shape="245.37,336.40 239.42,334.38 218.84,327.39"/>
    </edge>
    <edge id="-48238369#0" from="623891248" to="31306643" priority="7" type="highway.secondary">
        <lane id="-48238369#0_0" index="0" speed="13.89" length="13.49" shape="258.07,344.21 257.89,344.14"/>
        <lane id="-48238369#0_1" index="1" speed="13.89" length="13.49" shape="259.13,341.08 258.94,341.02"/>
    </edge>
    <edge id="-48238369#1" from="610223344" to="623891248" priority="7" type="highway.secondary">
        <lane id="-48238369#1_0" index="0" speed="13.89" length="36.88" shape="290.90,354.27 269.84,347.98"/>
        <lane id="-48238369#1_1" index="1" speed="13.89" length="36.88" shape="291.85,351.11 270.79,344.82"/>
    </edge>
    <edge id="-48238371" from="3210836246" to="613042055" priority="2" type="highway.service" shape="278.39,299.96 275.29,299.09 273.60,298.87 271.93,298.91 250.98,300.14">
        <lane id="-48238371_0" index="0" allow="delivery" speed="5.56" length="27.57" shape="277.94,301.55 274.85,300.68 273.39,300.50 271.97,300.56 255.82,301.51"/>
    </edge>
    <edge id="-48426222#0" from="623891250" to="610223430" priority="1" type="highway.cycleway">
        <lane id="-48426222#0_0" index="0" allow="bicycle" speed="5.56" length="13.82" shape="404.93,382.27 398.71,380.76"/>
    </edge>
    <edge id="-48426222#1" from="615038878" to="623891250" priority="1" type="highway.cycleway" shape="417.80,383.83 415.21,383.07 408.45,381.43">
        <lane id="-48426222#1_0" index="0" allow="bicycle" speed="5.56" length="9.65" shape="411.32,383.82 411.19,383.79"/>
    </edge>
    <edge id="-48426222#2" from="611658058" to="615038878" priority="1" type="highway.cycleway" shape="902.12,547.45 885.32,538.01 880.10,536.05 790.82,506.86 729.09,486.78 672.43,467.97 610.86,447.96 610.01,447.68 565.86,433.03 498.45,410.86 456.98,396.93 436.48,389.95 417.80,383.83">
        <lane id="-48426222#2_0" index="0" allow="bicycle" speed="5.56" length="511.57" shape="901.31,548.89 884.51,539.45 879.52,537.60 790.30,508.43 728.58,488.35 671.91,469.54 610.35,449.53 609.48,449.24 565.34,434.59 497.94,412.43 456.46,398.49 435.95,391.51 425.10,387.96"/>
    </edge>
    <edge id="-48426223#0" from="623891252" to="611658049" priority="1" type="highway.cycleway" shape="405.69,394.96 427.40,405.65 461.27,417.30 505.19,431.72 570.07,453.10 604.14,464.22 613.60,467.31 660.14,483.11 720.18,503.00 771.55,519.94 821.75,536.37 854.00,546.92 862.13,549.34 868.25,550.20 881.57,550.54">
        <lane id="-48426223#0_0" index="0" allow="bicycle" speed="5.56" length="501.58" shape="410.02,395.25 428.13,404.17 461.81,415.74 505.71,430.15 570.58,451.53 604.66,462.66 614.11,465.74 660.67,481.55 720.70,501.43 772.06,518.37 822.27,534.80 854.51,545.35 862.60,547.75 868.48,548.57 881.62,548.89"/>
    </edge>
    <edge id="-48426223#1" from="610223433" to="623891252" priority="1" type="highway.cycleway">
        <lane id="-48426223#1_0" index="0" allow="bicycle" speed="5.56" length="30.92" shape="390.84,385.81 404.36,392.46"/>
    </edge>
    <edge id="-48436086#0" from="253240365" to="615159991" priority="2" type="highway.service" shape="186.70,459.04 189.01,452.38 190.66,449.21 198.03,440.79">
        <lane id="-48436086#0_0" index="0" allow="delivery" speed="5.56" length="21.81" shape="186.84,453.60 187.45,451.84 189.29,448.27 196.78,439.71"/>
    </edge>
    <edge id="-48436086#1" from="615160016" to="253240365" priority="2" type="highway.service" shape="177.26,485.13 179.86,476.89 184.21,465.50 186.70,459.04">
        <lane id="-48436086#1_0" index="0" allow="delivery" speed="5.56" length="27.75" shape="176.48,482.09 178.28,476.40 182.67,464.91 183.32,463.22"/>
    </edge>
    <edge id="-48436086#2" from="615159974" to="615160016" priority="2" type="highway.service" shape="147.03,480.11 166.52,487.14 170.84,488.48 173.51,488.52 175.58,487.25 177.26,485.13">
        <lane id="-48436086#2_0" index="0" allow="delivery" speed="5.56" length="33.05" shape="147.59,478.56 167.08,485.59 170.76,486.72"/>
    </edge>
    <edge id="-48436099" from="615160029" to="615160016" priority="2" type="highway.service" shape="205.68,497.76 180.82,489.99 178.67,488.67 177.26,485.13">
        <lane id="-48436099_0" index="0" allow="delivery" speed="5.56" length="32.38" shape="205.19,499.34 180.13,491.51 178.90,490.75"/>
    </edge>
    <edge id="-48436111#0" from="615160149" to="615160177" priority="2" type="highway.service">
        <lane id="-48436111#0_0" index="0" allow="delivery" speed="5.56" length="38.22" shape="313.62,488.95 323.68,459.56"/>
    </edge>
    <edge id="-48436111#1" from="615160155" to="615160149" priority="2" type="highway.service" shape="292.90,518.53 305.00,521.74 307.25,521.34 308.91,520.24 315.24,502.76 316.02,500.25 315.60,497.41 314.60,494.94 314.42,491.73">
        <lane id="-48436111#1_0" index="0" allow="delivery" speed="5.56" length="46.76" shape="293.32,516.94 305.07,520.05 306.63,519.77 307.54,519.17 313.69,502.20 313.99,501.22"/>
    </edge>
    <edge id="-48436122" from="615160158" to="615160149" priority="2" type="highway.service" shape="304.49,513.67 310.46,496.32 312.20,493.67 314.42,491.73">
        <lane id="-48436122_0" index="0" allow="delivery" speed="5.56" length="24.47" shape="302.93,513.13 308.39,497.26"/>
    </edge>
    <edge id="-89429789#0" from="617990158" to="253185641" priority="6" type="highway.tertiary">
        <lane id="-89429789#0_0" index="0" speed="13.89" length="27.10" shape="258.73,459.17 257.60,439.94"/>
    </edge>
    <edge id="-89429789#1" from="32462569" to="617990158" priority="6" type="highway.tertiary" shape="260.86,468.69 260.74,465.75 260.55,462.05">
        <lane id="-89429789#1_0" index="0" speed="13.89" length="6.65" shape="259.07,465.32 259.06,465.12"/>
    </edge>
    <edge id="-89429789#2" from="617990179" to="32462569" priority="6" type="highway.tertiary" shape="259.92,500.14 260.98,478.39 261.07,475.44 261.02,472.74 260.86,468.69">
        <lane id="-89429789#2_0" index="0" speed="13.89" length="31.48" shape="258.42,497.01 259.33,478.31 259.42,475.39 259.38,473.25"/>
    </edge>
    <edge id="-89429789#3" from="32462570" to="617990179" priority="6" type="highway.tertiary">
        <lane id="-89429789#3_0" index="0" speed="13.89" length="16.58" shape="257.46,516.61 258.12,503.20"/>
    </edge>
    <edge id="141361975#0" from="34484975" to="611657356" priority="4" type="highway.residential" shape="852.77,257.66 844.51,264.22 826.30,279.04 783.03,314.13 768.13,325.84 749.23,340.56 747.84,341.69 691.93,386.98 680.76,396.02 674.25,393.91 614.00,374.47 565.45,359.01 531.20,346.47">
        <lane id="141361975#0_0" index="0" speed="8.33" length="378.34" shape="853.80,258.96 845.54,265.51 827.34,280.32 784.07,315.41 769.15,327.13 750.24,341.86 748.88,342.97 692.96,388.27 681.11,397.86 673.74,395.48 613.49,376.04 564.95,360.58 534.06,349.27"/>
    </edge>
    <edge id="141361975#1" from="611657356" to="611657327" priority="4" type="highway.residential">
        <lane id="141361975#1_0" index="0" speed="8.33" length="48.85" shape="528.12,347.20 487.39,333.87"/>
    </edge>
    <edge id="141361975#2" from="611657327" to="371198092" priority="4" type="highway.residential">
        <lane id="141361975#2_0" index="0" speed="8.33" length="22.29" shape="481.49,331.95 467.78,327.47"/>
    </edge>
    <edge id="141361975#3" from="371198092" to="613042407" priority="4" type="highway.residential">
        <lane id="141361975#3_0" index="0" speed="8.33" length="7.55" shape="459.70,323.27 459.55,323.14"/>
    </edge>
    <edge id="141361975#4" from="613042407" to="34484978" priority="4" type="highway.residential">
        <lane id="141361975#4_0" index="0" speed="8.33" length="4.81" shape="456.75,320.81 456.60,320.68"/>
    </edge>
    <edge id="23383834#0" from="253185641" to="615160177" priority="4" type="highway.residential" shape="258.96,435.00 263.95,434.86 277.13,439.20 326.80,455.56">
        <lane id="23383834#0_0" index="0" speed="13.89" length="71.16" shape="263.76,433.21 264.19,433.20 277.64,437.63 322.76,452.50"/>
    </edge>
    <edge id="23383834#1" from="615160177" to="615160175" priority="4" type="highway.residential">
        <lane id="23383834#1_0" index="0" speed="13.89" length="8.22" shape="331.79,455.48 332.14,455.60"/>
    </edge>
    <edge id="23383834#2" from="615160175" to="615160300" priority="4" type="highway.residential">
        <lane id="23383834#2_0" index="0" speed="13.89" length="68.96" shape="338.03,457.54 397.64,477.17"/>
    </edge>
    <edge id="23383834#3" from="615160300" to="614555608" priority="4" type="highway.residential">
        <lane id="23383834#3_0" index="0" speed="13.89" length="160.98" shape="403.53,479.11 553.51,528.54"/>
    </edge>
    <edge id="23383835#0" from="253185648" to="314425598" priority="1" type="highway.footway" spreadType="center">
        <lane id="23383835#0_0" index="0" allow="pedestrian" speed="2.78" length="34.22" shape="263.37,420.97 286.87,428.84"/>
    </edge>
    <edge id="23383835#1" from="314425598" to="371198087" priority="1" type="highway.footway" spreadType="center">
        <lane id="23383835#1_0" index="0" allow="pedestrian" speed="2.78" length="84.63" shape="292.98,430.84 368.17,454.65"/>
    </edge>
    <edge id="23383835#2" from="371198087" to="320644492" priority="1" type="highway.footway" spreadType="center">
        <lane id="23383835#2_0" index="0" allow="pedestrian" speed="2.78" length="53.72" shape="374.05,456.55 419.26,471.47"/>
    </edge>
    <edge id="23383835#3" from="320644492" to="314425655" priority="1" type="highway.footway" spreadType="center">
        <lane id="23383835#3_0" index="0" allow="pedestrian" speed="2.78" length="80.12" shape="425.15,473.41 495.95,496.62"/>
    </edge>
    <edge id="23383835#4" from="314425655" to="253185651" priority="1" type="highway.footway" spreadType="center" shape="498.30,497.39 525.09,507.27 548.44,514.81 559.89,518.59 566.90,520.89 627.39,541.93 674.07,556.37 683.23,559.35 687.98,560.95 716.96,570.68 816.92,604.28 852.98,616.40 867.91,619.75 973.33,638.77 977.39,639.48">
        <lane id="23383835#4_0" index="0" allow="pedestrian" speed="2.78" length="500.69" shape="502.08,498.78 525.09,507.27 548.44,514.81 559.89,518.59 566.90,520.89 627.39,541.93 674.07,556.37 683.23,559.35 687.98,560.95 716.96,570.68 816.92,604.28 852.98,616.40 867.91,619.75 973.33,638.77 977.39,639.48"/>
    </edge>
    <edge id="23386783#0" from="253220631" to="615160060" priority="1" type="highway.footway" spreadType="center" shape="257.22,405.71 249.26,405.88 227.13,399.22">
        <lane id="23386783#0_0" index="0" allow="pedestrian" speed="2.78" length="31.07" shape="252.41,405.81 249.26,405.88 230.39,400.20"/>
    </edge>
    <edge id="23386783#1" from="615160060" to="615159832" priority="1" type="highway.footway" spreadType="center">
        <lane id="23386783#1_0" index="0" allow="pedestrian" speed="2.78" length="44.49" shape="224.47,398.34 188.33,386.31"/>
    </edge>
    <edge id="23386783#2" from="615159832" to="615159825" priority="1" type="highway.footway" spreadType="center">
        <lane id="23386783#2_0" index="0" allow="pedestrian" speed="2.78" length="41.13" shape="181.16,384.14 148.34,375.14"/>
    </edge>
    <edge id="23386783#3" from="615159825" to="253220633" priority="1" type="highway.footway" spreadType="center" shape="145.25,374.29 130.52,369.70 120.82,373.55">
        <lane id="23386783#3_0" index="0" allow="pedestrian" speed="2.78" length="25.86" shape="141.95,373.26 130.52,369.70 120.82,373.55"/>
    </edge>
    <edge id="23386784#0" from="253220639" to="615159973" priority="4" type="highway.residential" shape="0.00,384.06 8.94,387.30 27.47,394.44 53.87,404.33 62.67,407.46 106.06,422.84 126.48,429.57 134.30,433.05 140.78,436.93 147.87,442.38 152.74,446.49 159.65,449.83">
        <lane id="23386784#0_0" index="0" speed="8.33" length="173.54" shape="0.56,382.51 9.50,385.75 28.06,392.90 54.45,402.79 63.22,405.91 106.62,421.29 127.00,428.00 134.97,431.54 141.63,435.52 148.88,441.08 153.65,445.10 157.49,446.95"/>
    </edge>
    <edge id="23386784#1" from="615159973" to="253240365" priority="4" type="highway.residential" shape="159.65,449.83 160.71,450.35 173.18,455.45 186.70,459.04">
        <lane id="23386784#1_0" index="0" speed="8.33" length="28.64" shape="163.12,449.55 173.80,453.92 182.17,456.13"/>
    </edge>
    <edge id="23386784#2" from="253240365" to="615160011" priority="4" type="highway.residential" shape="186.70,459.04 202.46,462.38 204.45,462.75">
        <lane id="23386784#2_0" index="0" speed="8.33" length="18.14" shape="192.10,458.50 201.77,460.55"/>
    </edge>
    <edge id="23386784#3" from="615160011" to="32462569" priority="4" type="highway.residential" shape="204.45,462.75 220.27,465.21 233.49,466.92 247.59,468.14 260.86,468.69">
        <lane id="23386784#3_0" index="0" speed="8.33" length="56.78" shape="207.92,461.62 220.52,463.58 233.70,465.28 247.73,466.50 255.90,466.84"/>
    </edge>
    <edge id="23386789#0" from="253220643" to="623891249" priority="1" type="highway.footway" spreadType="center">
        <lane id="23386789#0_0" index="0" allow="pedestrian" speed="2.78" length="13.41" shape="259.40,353.63 263.05,354.88"/>
    </edge>
    <edge id="23386789#1" from="623891249" to="314425599" priority="1" type="highway.footway" spreadType="center">
        <lane id="23386789#1_0" index="0" allow="pedestrian" speed="2.78" length="24.95" shape="269.16,356.98 287.60,363.32"/>
    </edge>
    <edge id="23386789#2" from="314425599" to="623891255" priority="1" type="highway.footway" spreadType="center">
        <lane id="23386789#2_0" index="0" allow="pedestrian" speed="2.78" length="120.20" shape="293.51,365.34 400.86,402.20"/>
    </edge>
    <edge id="23386789#3" from="623891255" to="371198088" priority="1" type="highway.footway" spreadType="center">
        <lane id="23386789#3_0" index="0" allow="pedestrian" speed="2.78" length="13.76" shape="406.75,404.22 414.28,406.80"/>
    </edge>
    <edge id="23386789#4" from="371198088" to="320644490" priority="1" type="highway.footway" spreadType="center">
        <lane id="23386789#4_0" index="0" allow="pedestrian" speed="2.78" length="44.44" shape="420.17,408.83 456.18,421.18"/>
    </edge>
    <edge id="23386789#5" from="320644490" to="314425621" priority="1" type="highway.footway" spreadType="center">
        <lane id="23386789#5_0" index="0" allow="pedestrian" speed="2.78" length="91.45" shape="462.05,423.19 541.82,450.38"/>
    </edge>
    <edge id="23386789#6" from="314425621" to="253220647" priority="1" type="highway.footway" spreadType="center" shape="545.61,451.67 600.06,469.73 602.02,470.31 678.03,495.25 727.15,510.71 735.03,513.26 872.11,559.41 878.21,561.61 886.47,564.43">
        <lane id="23386789#6_0" index="0" allow="pedestrian" speed="2.78" length="359.04" shape="547.99,452.46 600.06,469.73 602.02,470.31 678.03,495.25 727.15,510.71 735.03,513.26 872.11,559.41 878.21,561.61 886.47,564.43"/>
    </edge>
    <edge id="246652651#0" from="2661367221" to="610223364" priority="1" type="highway.footway" spreadType="center">
        <lane id="246652651#0_0" index="0" allow="pedestrian" speed="2.78" length="11.01" shape="394.67,286.31 396.86,280.11"/>
    </edge>
    <edge id="246652651#1" from="610223364" to="2536614820" priority="1" type="highway.footway" spreadType="center" shape="398.34,275.93 397.69,268.64 392.75,238.38 392.52,237.78 392.17,237.38 391.72,237.07 391.31,236.74 390.99,236.29 389.38,227.57 388.16,218.57">
        <lane id="246652651#1_0" index="0" allow="pedestrian" speed="2.78" length="58.73" shape="398.02,272.37 397.69,268.64 392.75,238.38 392.52,237.78 392.17,237.38 391.72,237.07 391.31,236.74 390.99,236.29 389.38,227.57 388.16,218.57"/>
    </edge>
    <edge id="260611561#0" from="610223368" to="2661346494" priority="1" type="highway.footway" spreadType="center">
        <lane id="260611561#0_0" index="0" allow="pedestrian" speed="2.78" length="2.79" shape="374.25,303.34 374.33,303.52"/>
    </edge>
    <edge id="260611561#1" from="2661346494" to="2661346491" priority="1" type="highway.footway" spreadType="center" shape="375.18,305.29 366.10,330.87 367.31,332.39">
        <lane id="260611561#1_0" index="0" allow="pedestrian" speed="2.78" length="29.09" shape="374.45,307.33 366.10,330.87 367.31,332.39"/>
    </edge>
    <edge id="260611563" from="610223368" to="2661341631" priority="1" type="highway.footway" spreadType="center">
        <lane id="260611563_0" index="0" allow="pedestrian" speed="2.78" length="41.55" shape="376.91,303.80 413.17,316.56"/>
    </edge>
    <edge id="260611564#0" from="610223368" to="2661341628" priority="1" type="highway.footway" spreadType="center">
        <lane id="260611564#0_0" index="0" allow="pedestrian" speed="2.78" length="24.83" shape="375.02,299.85 381.25,282.30"/>
    </edge>
    <edge id="260611564#1" from="2661341628" to="2661367205" priority="1" type="highway.footway" spreadType="center">
        <lane id="260611564#1_0" index="0" allow="pedestrian" speed="2.78" length="2.40" shape="382.65,278.34 382.71,278.15"/>
    </edge>
    <edge id="260611564#2" from="2661367205" to="2661479144" priority="1" type="highway.footway" spreadType="center">
        <lane id="260611564#2_0" index="0" allow="pedestrian" speed="2.78" length="4.55" shape="384.29,273.69 384.60,272.82"/>
    </edge>
    <edge id="260612414#0" from="2661346491" to="2661346493" priority="1" type="highway.footway" spreadType="center">
        <lane id="260612414#0_0" index="0" allow="pedestrian" speed="2.78" length="5.58" shape="369.00,334.49 369.13,334.65"/>
    </edge>
    <edge id="260612414#1" from="2661346493" to="497720642" priority="1" type="highway.footway" spreadType="center">
        <lane id="260612414#1_0" index="0" allow="pedestrian" speed="2.78" length="16.42" shape="370.83,338.80 370.92,349.91"/>
    </edge>
    <edge id="260612415" from="2661346494" to="610223376" priority="1" type="highway.footway" spreadType="center">
        <lane id="260612415_0" index="0" allow="pedestrian" speed="2.78" length="2.39" shape="375.82,306.65 376.20,307.45"/>
    </edge>
    <edge id="260612635#0" from="2661348010" to="610223345" priority="1" type="highway.footway" spreadType="center">
        <lane id="260612635#0_0" index="0" allow="pedestrian" speed="2.78" length="54.38" shape="364.04,219.79 367.10,271.52"/>
    </edge>
    <edge id="260612635#1" from="610223345" to="2835777974" priority="1" type="highway.footway" spreadType="center">
        <lane id="260612635#1_0" index="0" allow="pedestrian" speed="2.78" length="8.46" shape="366.98,277.66 366.87,279.17"/>
    </edge>